BACKCGRA=1 NET_REQ=1 COMMAND_I=1 COMMAND_O=1 COMP=1 gem5.opt /home/vidushi/ss-stack/gem5/configs/example/se.py --cpu-type=MinorCPU --ruby --num-cpus=4 --num-dirs=4 --network=simple --topology=Mesh_XY --mesh-rows=4 --cmd=main
gem5 Simulator System.  http://gem5.org
gem5 is copyrighted software; use the --copyright option for details.

gem5 compiled Oct 28 2018 19:44:14
gem5 started Oct 28 2018 19:45:17
gem5 executing on octa, pid 19285
command line: gem5.opt /home/vidushi/ss-stack/gem5/configs/example/se.py --cpu-type=MinorCPU --ruby --num-cpus=4 --num-dirs=4 --network=simple --topology=Mesh_XY --mesh-rows=4 --cmd=main

Global frequency set at 1000000000000 ticks per second
SS_DEBUG VAR: COMMAND_O IS ON
SS_DEBUG VAR: COMMAND_I IS ON
SS_DEBUG VAR: COMP IS ON
SS_DEBUG VAR: NET_REQ IS ON
Loading SS Config (env SBCONFIG): "/home/vidushi/ss-stack/ss-tools/configs/spu_merge_test.sbmodel"
FU_FIFO_LEN:15
IND_ROB_SIZE:8
VPORT_IN depricated, ignoring colons, switch to PORT_IN
SS_DEBUG VAR: COMMAND_O IS ON
SS_DEBUG VAR: COMMAND_I IS ON
SS_DEBUG VAR: COMP IS ON
SS_DEBUG VAR: NET_REQ IS ON
SS_DEBUG VAR: COMMAND_O IS ON
SS_DEBUG VAR: COMMAND_I IS ON
SS_DEBUG VAR: COMP IS ON
SS_DEBUG VAR: NET_REQ IS ON
SS_DEBUG VAR: COMMAND_O IS ON
SS_DEBUG VAR: COMMAND_I IS ON
SS_DEBUG VAR: COMP IS ON
SS_DEBUG VAR: NET_REQ IS ON
NUMBER OF MEMORY CONTROLLERS: 8
NUMBER OF SPU CORES: 4
**** REAL SIMULATION ****
Start reading dense activations
ind: 0 val: 36
ind: 1 val: 250
ind: 2 val: 399
ind: 3 val: 466
ind: 4 val: 499
ind: 5 val: 319
ind: 6 val: 49
ind: 7 val: 322
ind: 8 val: 35
ind: 9 val: 361
ind: 10 val: 452
ind: 11 val: 388
ind: 12 val: 28
ind: 13 val: 253
ind: 14 val: 291
ind: 15 val: 344
Done reading dense activations
Start reading activations file
Activations:
indices being merged
3 2 1 0
242 81 405 471
7 6 5 4
150 50 45 150
11 10 9 8
468 466 388 301
32768 14 13 12
0 19 18 96
0 0
1 16
2 32
Done writing merged weights values
Using Schedule: "sched/sparsify.sched"
Switched to config: sparsify lat_mis:0 (group breakdown: group0: fu_thr:1 mis:1 )
1677492	acc0  ISSUED 	id:1 dma->port acc_size=8 stride=8 bytes_comp=0 addr=143630 strides_left=4 in_port=20 (A ) repeat_in=1 stretch=0               ACTIVE
COMPLETED: dma->port acc_size=8 stride=8 bytes_comp=0 addr=143650 strides_left=0 in_port=20 (A ) repeat_in=1 stretch=0             inactive
1677494	acc0  ISSUED 	id:2 dma->port acc_size=8 stride=8 bytes_comp=0 addr=143660 strides_left=4 in_port=12 (B ) repeat_in=1 stretch=0               ACTIVE
COMPLETED: dma->port acc_size=8 stride=8 bytes_comp=0 addr=143680 strides_left=0 in_port=12 (B ) repeat_in=1 stretch=0             inactive
1677497	acc0  ISSUED 	id:3 const->port	port=10 (size )	const2:127 left=16/16	iters=0/1               ACTIVE
Allowed to push input: 127
COMPLETED: const->port	port=10 (size )	const2:127 left=0/16	iters=0/1             inactive
Allowed to push input: 127
Allowed to push input: 127
Allowed to push input: 127
Allowed to push input: 127
Allowed to push input: 127
Allowed to push input: 127
Allowed to push input: 127
Allowed to push input: 127
Allowed to push input: 127
The buffer is full, so cannot push from the input node which is then stuck!!!
Didn't allow to push input
The buffer is full, so cannot push from the input node which is then stuck!!!
Didn't allow to push input
The buffer is full, so cannot push from the input node which is then stuck!!!
Didn't allow to push input
The buffer is full, so cannot push from the input node which is then stuck!!!
Didn't allow to push input
The buffer is full, so cannot push from the input node which is then stuck!!!
Didn't allow to push input
The buffer is full, so cannot push from the input node which is then stuck!!!
Didn't allow to push input
The buffer is full, so cannot push from the input node which is then stuck!!!
Didn't allow to push input
The buffer is full, so cannot push from the input node which is then stuck!!!
Didn't allow to push input
The buffer is full, so cannot push from the input node which is then stuck!!!
Didn't allow to push input
The buffer is full, so cannot push from the input node which is then stuck!!!
Didn't allow to push input
The buffer is full, so cannot push from the input node which is then stuck!!!
Didn't allow to push input
The buffer is full, so cannot push from the input node which is then stuck!!!
Didn't allow to push input
The buffer is full, so cannot push from the input node which is then stuck!!!
Didn't allow to push input
The buffer is full, so cannot push from the input node which is then stuck!!!
Didn't allow to push input
The buffer is full, so cannot push from the input node which is then stuck!!!
Didn't allow to push input
The buffer is full, so cannot push from the input node which is then stuck!!!
Didn't allow to push input
The buffer is full, so cannot push from the input node which is then stuck!!!
Didn't allow to push input
The buffer is full, so cannot push from the input node which is then stuck!!!
Didn't allow to push input
The buffer is full, so cannot push from the input node which is then stuck!!!
Didn't allow to push input
The buffer is full, so cannot push from the input node which is then stuck!!!
Didn't allow to push input
The buffer is full, so cannot push from the input node which is then stuck!!!
Didn't allow to push input
The buffer is full, so cannot push from the input node which is then stuck!!!
Didn't allow to push input
The buffer is full, so cannot push from the input node which is then stuck!!!
Didn't allow to push input
The buffer is full, so cannot push from the input node which is then stuck!!!
Didn't allow to push input
The buffer is full, so cannot push from the input node which is then stuck!!!
Didn't allow to push input
The buffer is full, so cannot push from the input node which is then stuck!!!
Didn't allow to push input
The buffer is full, so cannot push from the input node which is then stuck!!!
Didn't allow to push input
The buffer is full, so cannot push from the input node which is then stuck!!!
Didn't allow to push input
The buffer is full, so cannot push from the input node which is then stuck!!!
Didn't allow to push input
The buffer is full, so cannot push from the input node which is then stuck!!!
Didn't allow to push input
The buffer is full, so cannot push from the input node which is then stuck!!!
Didn't allow to push input
The buffer is full, so cannot push from the input node which is then stuck!!!
Didn't allow to push input
The buffer is full, so cannot push from the input node which is then stuck!!!
Didn't allow to push input
The buffer is full, so cannot push from the input node which is then stuck!!!
Didn't allow to push input
The buffer is full, so cannot push from the input node which is then stuck!!!
Didn't allow to push input
The buffer is full, so cannot push from the input node which is then stuck!!!
Didn't allow to push input
The buffer is full, so cannot push from the input node which is then stuck!!!
Didn't allow to push input
The buffer is full, so cannot push from the input node which is then stuck!!!
Didn't allow to push input
The buffer is full, so cannot push from the input node which is then stuck!!!
Didn't allow to push input
The buffer is full, so cannot push from the input node which is then stuck!!!
Didn't allow to push input
The buffer is full, so cannot push from the input node which is then stuck!!!
Didn't allow to push input
The buffer is full, so cannot push from the input node which is then stuck!!!
Didn't allow to push input
The buffer is full, so cannot push from the input node which is then stuck!!!
Didn't allow to push input
The buffer is full, so cannot push from the input node which is then stuck!!!
Didn't allow to push input
The buffer is full, so cannot push from the input node which is then stuck!!!
Didn't allow to push input
The buffer is full, so cannot push from the input node which is then stuck!!!
Didn't allow to push input
The buffer is full, so cannot push from the input node which is then stuck!!!
Didn't allow to push input
The buffer is full, so cannot push from the input node which is then stuck!!!
Didn't allow to push input
The buffer is full, so cannot push from the input node which is then stuck!!!
Didn't allow to push input
The buffer is full, so cannot push from the input node which is then stuck!!!
Didn't allow to push input
The buffer is full, so cannot push from the input node which is then stuck!!!
Didn't allow to push input
The buffer is full, so cannot push from the input node which is then stuck!!!
Didn't allow to push input
The buffer is full, so cannot push from the input node which is then stuck!!!
Didn't allow to push input
The buffer is full, so cannot push from the input node which is then stuck!!!
Didn't allow to push input
The buffer is full, so cannot push from the input node which is then stuck!!!
Didn't allow to push input
The buffer is full, so cannot push from the input node which is then stuck!!!
Didn't allow to push input
The buffer is full, so cannot push from the input node which is then stuck!!!
Didn't allow to push input
The buffer is full, so cannot push from the input node which is then stuck!!!
Didn't allow to push input
The buffer is full, so cannot push from the input node which is then stuck!!!
Didn't allow to push input
The buffer is full, so cannot push from the input node which is then stuck!!!
Didn't allow to push input
The buffer is full, so cannot push from the input node which is then stuck!!!
Didn't allow to push input
The buffer is full, so cannot push from the input node which is then stuck!!!
Didn't allow to push input
The buffer is full, so cannot push from the input node which is then stuck!!!
Didn't allow to push input
The buffer is full, so cannot push from the input node which is then stuck!!!
Didn't allow to push input
The buffer is full, so cannot push from the input node which is then stuck!!!
Didn't allow to push input
The buffer is full, so cannot push from the input node which is then stuck!!!
Didn't allow to push input
The buffer is full, so cannot push from the input node which is then stuck!!!
Didn't allow to push input
The buffer is full, so cannot push from the input node which is then stuck!!!
Didn't allow to push input
The buffer is full, so cannot push from the input node which is then stuck!!!
Didn't allow to push input
The buffer is full, so cannot push from the input node which is then stuck!!!
Didn't allow to push input
The buffer is full, so cannot push from the input node which is then stuck!!!
Didn't allow to push input
The buffer is full, so cannot push from the input node which is then stuck!!!
Didn't allow to push input
The buffer is full, so cannot push from the input node which is then stuck!!!
Didn't allow to push input
The buffer is full, so cannot push from the input node which is then stuck!!!
Didn't allow to push input
The buffer is full, so cannot push from the input node which is then stuck!!!
Didn't allow to push input
The buffer is full, so cannot push from the input node which is then stuck!!!
Didn't allow to push input
The buffer is full, so cannot push from the input node which is then stuck!!!
Didn't allow to push input
The buffer is full, so cannot push from the input node which is then stuck!!!
Didn't allow to push input
The buffer is full, so cannot push from the input node which is then stuck!!!
Didn't allow to push input
The buffer is full, so cannot push from the input node which is then stuck!!!
Didn't allow to push input
The buffer is full, so cannot push from the input node which is then stuck!!!
Didn't allow to push input
The buffer is full, so cannot push from the input node which is then stuck!!!
Didn't allow to push input
The buffer is full, so cannot push from the input node which is then stuck!!!
Didn't allow to push input
The buffer is full, so cannot push from the input node which is then stuck!!!
Didn't allow to push input
The buffer is full, so cannot push from the input node which is then stuck!!!
Didn't allow to push input
The buffer is full, so cannot push from the input node which is then stuck!!!
Didn't allow to push input
The buffer is full, so cannot push from the input node which is then stuck!!!
Didn't allow to push input
The buffer is full, so cannot push from the input node which is then stuck!!!
Didn't allow to push input
The buffer is full, so cannot push from the input node which is then stuck!!!
Didn't allow to push input
The buffer is full, so cannot push from the input node which is then stuck!!!
Didn't allow to push input
The buffer is full, so cannot push from the input node which is then stuck!!!
Didn't allow to push input
The buffer is full, so cannot push from the input node which is then stuck!!!
Didn't allow to push input
The buffer is full, so cannot push from the input node which is then stuck!!!
Didn't allow to push input
The buffer is full, so cannot push from the input node which is then stuck!!!
Didn't allow to push input
The buffer is full, so cannot push from the input node which is then stuck!!!
Didn't allow to push input
The buffer is full, so cannot push from the input node which is then stuck!!!
Didn't allow to push input
The buffer is full, so cannot push from the input node which is then stuck!!!
Didn't allow to push input
The buffer is full, so cannot push from the input node which is then stuck!!!
Didn't allow to push input
The buffer is full, so cannot push from the input node which is then stuck!!!
Didn't allow to push input
The buffer is full, so cannot push from the input node which is then stuck!!!
Didn't allow to push input
The buffer is full, so cannot push from the input node which is then stuck!!!
Didn't allow to push input
The buffer is full, so cannot push from the input node which is then stuck!!!
Didn't allow to push input
The buffer is full, so cannot push from the input node which is then stuck!!!
Didn't allow to push input
The buffer is full, so cannot push from the input node which is then stuck!!!
Didn't allow to push input
The buffer is full, so cannot push from the input node which is then stuck!!!
Didn't allow to push input
The buffer is full, so cannot push from the input node which is then stuck!!!
Didn't allow to push input
The buffer is full, so cannot push from the input node which is then stuck!!!
Didn't allow to push input
The buffer is full, so cannot push from the input node which is then stuck!!!
Didn't allow to push input
The buffer is full, so cannot push from the input node which is then stuck!!!
Didn't allow to push input
The buffer is full, so cannot push from the input node which is then stuck!!!
Didn't allow to push input
The buffer is full, so cannot push from the input node which is then stuck!!!
Didn't allow to push input
The buffer is full, so cannot push from the input node which is then stuck!!!
Didn't allow to push input
The buffer is full, so cannot push from the input node which is then stuck!!!
Didn't allow to push input
The buffer is full, so cannot push from the input node which is then stuck!!!
Didn't allow to push input
The buffer is full, so cannot push from the input node which is then stuck!!!
Didn't allow to push input
The buffer is full, so cannot push from the input node which is then stuck!!!
Didn't allow to push input
The buffer is full, so cannot push from the input node which is then stuck!!!
Didn't allow to push input
The buffer is full, so cannot push from the input node which is then stuck!!!
Didn't allow to push input
The buffer is full, so cannot push from the input node which is then stuck!!!
Didn't allow to push input
The buffer is full, so cannot push from the input node which is then stuck!!!
Didn't allow to push input
The buffer is full, so cannot push from the input node which is then stuck!!!
Didn't allow to push input
The buffer is full, so cannot push from the input node which is then stuck!!!
Didn't allow to push input
The buffer is full, so cannot push from the input node which is then stuck!!!
Didn't allow to push input
The buffer is full, so cannot push from the input node which is then stuck!!!
Allowed to push input: 844433520132096
Didn't allow to push input
The buffer is full, so cannot push from the input node which is then stuck!!!
1677631	acc0  ISSUED 	id:5 const->port	port=12 (B )	const2:9223372036854775808 left=1/1	iters=0/1               ACTIVE
COMPLETED: const->port	port=12 (B )	const2:9223372036854775808 left=0/1	iters=0/1             inactive
Allowed to push input: 3096267694080008
Didn't allow to push input
The buffer is full, so cannot push from the input node which is then stuck!!!
1677632	acc0  ISSUED 	id:6 port->dma acc_size=8 stride=8 bytes_comp=0 addr=7fffffffffffe768 strides_left=4 out_port=4 garbage=0               ACTIVE
Didn't allow to push input
The buffer is full, so cannot push from the input node which is then stuck!!!
Didn't allow to push input
The buffer is full, so cannot push from the input node which is then stuck!!!
1677634	acc0  ISSUED 	id:7 port->dma acc_size=8 stride=8 bytes_comp=0 addr=7fffffffffffe748 strides_left=4 out_port=10 garbage=0               ACTIVE
Didn't allow to push input
The buffer is full, so cannot push from the input node which is then stuck!!!
Didn't allow to push input
The buffer is full, so cannot push from the input node which is then stuck!!!
Didn't allow to push input
The buffer is full, so cannot push from the input node which is then stuck!!!
Didn't allow to push input
The buffer is full, so cannot push from the input node which is then stuck!!!
Didn't allow to push input
The buffer is full, so cannot push from the input node which is then stuck!!!
Didn't allow to push input
The buffer is full, so cannot push from the input node which is then stuck!!!
Didn't allow to push input
The buffer is full, so cannot push from the input node which is then stuck!!!
Didn't allow to push input
The buffer is full, so cannot push from the input node which is then stuck!!!
Didn't allow to push input
The buffer is full, so cannot push from the input node which is then stuck!!!
Didn't allow to push input
The buffer is full, so cannot push from the input node which is then stuck!!!
Didn't allow to push input
The buffer is full, so cannot push from the input node which is then stuck!!!
Didn't allow to push input
The buffer is full, so cannot push from the input node which is then stuck!!!
Didn't allow to push input
The buffer is full, so cannot push from the input node which is then stuck!!!
Didn't allow to push input
The buffer is full, so cannot push from the input node which is then stuck!!!
Didn't allow to push input
The buffer is full, so cannot push from the input node which is then stuck!!!
Didn't allow to push input
The buffer is full, so cannot push from the input node which is then stuck!!!
Didn't allow to push input
The buffer is full, so cannot push from the input node which is then stuck!!!
Didn't allow to push input
The buffer is full, so cannot push from the input node which is then stuck!!!
Didn't allow to push input
The buffer is full, so cannot push from the input node which is then stuck!!!
Didn't allow to push input
The buffer is full, so cannot push from the input node which is then stuck!!!
Didn't allow to push input
The buffer is full, so cannot push from the input node which is then stuck!!!
Didn't allow to push input
The buffer is full, so cannot push from the input node which is then stuck!!!
Didn't allow to push input
The buffer is full, so cannot push from the input node which is then stuck!!!
Didn't allow to push input
The buffer is full, so cannot push from the input node which is then stuck!!!
Didn't allow to push input
The buffer is full, so cannot push from the input node which is then stuck!!!
Didn't allow to push input
The buffer is full, so cannot push from the input node which is then stuck!!!
Didn't allow to push input
The buffer is full, so cannot push from the input node which is then stuck!!!
Didn't allow to push input
The buffer is full, so cannot push from the input node which is then stuck!!!
Didn't allow to push input
The buffer is full, so cannot push from the input node which is then stuck!!!
Didn't allow to push input
The buffer is full, so cannot push from the input node which is then stuck!!!
Didn't allow to push input
The buffer is full, so cannot push from the input node which is then stuck!!!
Didn't allow to push input
The buffer is full, so cannot push from the input node which is then stuck!!!
Didn't allow to push input
The buffer is full, so cannot push from the input node which is then stuck!!!
Didn't allow to push input
The buffer is full, so cannot push from the input node which is then stuck!!!
Didn't allow to push input
The buffer is full, so cannot push from the input node which is then stuck!!!
Didn't allow to push input
The buffer is full, so cannot push from the input node which is then stuck!!!
Didn't allow to push input
The buffer is full, so cannot push from the input node which is then stuck!!!
Didn't allow to push input
The buffer is full, so cannot push from the input node which is then stuck!!!
Didn't allow to push input
The buffer is full, so cannot push from the input node which is then stuck!!!
Didn't allow to push input
The buffer is full, so cannot push from the input node which is then stuck!!!
Didn't allow to push input
The buffer is full, so cannot push from the input node which is then stuck!!!
Didn't allow to push input
The buffer is full, so cannot push from the input node which is then stuck!!!
Didn't allow to push input
The buffer is full, so cannot push from the input node which is then stuck!!!
Didn't allow to push input
The buffer is full, so cannot push from the input node which is then stuck!!!
Didn't allow to push input
The buffer is full, so cannot push from the input node which is then stuck!!!
Didn't allow to push input
The buffer is full, so cannot push from the input node which is then stuck!!!
Didn't allow to push input
The buffer is full, so cannot push from the input node which is then stuck!!!
Didn't allow to push input
The buffer is full, so cannot push from the input node which is then stuck!!!
Didn't allow to push input
The buffer is full, so cannot push from the input node which is then stuck!!!
Didn't allow to push input
The buffer is full, so cannot push from the input node which is then stuck!!!
Didn't allow to push input
The buffer is full, so cannot push from the input node which is then stuck!!!
Didn't allow to push input
The buffer is full, so cannot push from the input node which is then stuck!!!
Didn't allow to push input
The buffer is full, so cannot push from the input node which is then stuck!!!
Didn't allow to push input
The buffer is full, so cannot push from the input node which is then stuck!!!
Didn't allow to push input
The buffer is full, so cannot push from the input node which is then stuck!!!
Didn't allow to push input
The buffer is full, so cannot push from the input node which is then stuck!!!
Didn't allow to push input
The buffer is full, so cannot push from the input node which is then stuck!!!
Didn't allow to push input
The buffer is full, so cannot push from the input node which is then stuck!!!
Didn't allow to push input
The buffer is full, so cannot push from the input node which is then stuck!!!
Didn't allow to push input
The buffer is full, so cannot push from the input node which is then stuck!!!
Didn't allow to push input
The buffer is full, so cannot push from the input node which is then stuck!!!
Didn't allow to push input
The buffer is full, so cannot push from the input node which is then stuck!!!
Didn't allow to push input
The buffer is full, so cannot push from the input node which is then stuck!!!
Didn't allow to push input
The buffer is full, so cannot push from the input node which is then stuck!!!
Didn't allow to push input
The buffer is full, so cannot push from the input node which is then stuck!!!
Didn't allow to push input
The buffer is full, so cannot push from the input node which is then stuck!!!
Didn't allow to push input
The buffer is full, so cannot push from the input node which is then stuck!!!
Didn't allow to push input
The buffer is full, so cannot push from the input node which is then stuck!!!
Didn't allow to push input
The buffer is full, so cannot push from the input node which is then stuck!!!
Didn't allow to push input
The buffer is full, so cannot push from the input node which is then stuck!!!
Didn't allow to push input
The buffer is full, so cannot push from the input node which is then stuck!!!
Didn't allow to push input
The buffer is full, so cannot push from the input node which is then stuck!!!
Didn't allow to push input
The buffer is full, so cannot push from the input node which is then stuck!!!
Didn't allow to push input
The buffer is full, so cannot push from the input node which is then stuck!!!
Didn't allow to push input
The buffer is full, so cannot push from the input node which is then stuck!!!
Didn't allow to push input
The buffer is full, so cannot push from the input node which is then stuck!!!
Didn't allow to push input
The buffer is full, so cannot push from the input node which is then stuck!!!
Didn't allow to push input
The buffer is full, so cannot push from the input node which is then stuck!!!
Didn't allow to push input
The buffer is full, so cannot push from the input node which is then stuck!!!
Didn't allow to push input
The buffer is full, so cannot push from the input node which is then stuck!!!
Didn't allow to push input
The buffer is full, so cannot push from the input node which is then stuck!!!
Didn't allow to push input
The buffer is full, so cannot push from the input node which is then stuck!!!
Didn't allow to push input
The buffer is full, so cannot push from the input node which is then stuck!!!
Didn't allow to push input
The buffer is full, so cannot push from the input node which is then stuck!!!
Didn't allow to push input
The buffer is full, so cannot push from the input node which is then stuck!!!
Didn't allow to push input
The buffer is full, so cannot push from the input node which is then stuck!!!
Didn't allow to push input
The buffer is full, so cannot push from the input node which is then stuck!!!
Didn't allow to push input
The buffer is full, so cannot push from the input node which is then stuck!!!
Didn't allow to push input
The buffer is full, so cannot push from the input node which is then stuck!!!
Didn't allow to push input
The buffer is full, so cannot push from the input node which is then stuck!!!
Didn't allow to push input
The buffer is full, so cannot push from the input node which is then stuck!!!
Didn't allow to push input
The buffer is full, so cannot push from the input node which is then stuck!!!
Didn't allow to push input
The buffer is full, so cannot push from the input node which is then stuck!!!
Didn't allow to push input
The buffer is full, so cannot push from the input node which is then stuck!!!
Didn't allow to push input
The buffer is full, so cannot push from the input node which is then stuck!!!
Didn't allow to push input
The buffer is full, so cannot push from the input node which is then stuck!!!
Didn't allow to push input
The buffer is full, so cannot push from the input node which is then stuck!!!
Didn't allow to push input
The buffer is full, so cannot push from the input node which is then stuck!!!
Didn't allow to push input
The buffer is full, so cannot push from the input node which is then stuck!!!
Didn't allow to push input
The buffer is full, so cannot push from the input node which is then stuck!!!
Didn't allow to push input
The buffer is full, so cannot push from the input node which is then stuck!!!
Didn't allow to push input
The buffer is full, so cannot push from the input node which is then stuck!!!
Didn't allow to push input
The buffer is full, so cannot push from the input node which is then stuck!!!
Didn't allow to push input
The buffer is full, so cannot push from the input node which is then stuck!!!
Didn't allow to push input
The buffer is full, so cannot push from the input node which is then stuck!!!
Didn't allow to push input
The buffer is full, so cannot push from the input node which is then stuck!!!
Didn't allow to push input
The buffer is full, so cannot push from the input node which is then stuck!!!
Didn't allow to push input
The buffer is full, so cannot push from the input node which is then stuck!!!
Didn't allow to push input
The buffer is full, so cannot push from the input node which is then stuck!!!
Didn't allow to push input
The buffer is full, so cannot push from the input node which is then stuck!!!
Didn't allow to push input
The buffer is full, so cannot push from the input node which is then stuck!!!
Didn't allow to push input
The buffer is full, so cannot push from the input node which is then stuck!!!
Didn't allow to push input
The buffer is full, so cannot push from the input node which is then stuck!!!
Didn't allow to push input
The buffer is full, so cannot push from the input node which is then stuck!!!
Didn't allow to push input
The buffer is full, so cannot push from the input node which is then stuck!!!
Didn't allow to push input
The buffer is full, so cannot push from the input node which is then stuck!!!
Didn't allow to push input
The buffer is full, so cannot push from the input node which is then stuck!!!
Didn't allow to push input
The buffer is full, so cannot push from the input node which is then stuck!!!
Didn't allow to push input
The buffer is full, so cannot push from the input node which is then stuck!!!
Didn't allow to push input
The buffer is full, so cannot push from the input node which is then stuck!!!
Didn't allow to push input
The buffer is full, so cannot push from the input node which is then stuck!!!
Didn't allow to push input
The buffer is full, so cannot push from the input node which is then stuck!!!
Didn't allow to push input
The buffer is full, so cannot push from the input node which is then stuck!!!
Didn't allow to push input
The buffer is full, so cannot push from the input node which is then stuck!!!
Didn't allow to push input
The buffer is full, so cannot push from the input node which is then stuck!!!
Didn't allow to push input
The buffer is full, so cannot push from the input node which is then stuck!!!
Didn't allow to push input
The buffer is full, so cannot push from the input node which is then stuck!!!
Didn't allow to push input
The buffer is full, so cannot push from the input node which is then stuck!!!
Didn't allow to push input
The buffer is full, so cannot push from the input node which is then stuck!!!
Didn't allow to push input
The buffer is full, so cannot push from the input node which is then stuck!!!
Didn't allow to push input
The buffer is full, so cannot push from the input node which is then stuck!!!
Didn't allow to push input
The buffer is full, so cannot push from the input node which is then stuck!!!
Didn't allow to push input
The buffer is full, so cannot push from the input node which is then stuck!!!
Didn't allow to push input
The buffer is full, so cannot push from the input node which is then stuck!!!
Didn't allow to push input
The buffer is full, so cannot push from the input node which is then stuck!!!
Didn't allow to push input
The buffer is full, so cannot push from the input node which is then stuck!!!
Didn't allow to push input
The buffer is full, so cannot push from the input node which is then stuck!!!
Didn't allow to push input
The buffer is full, so cannot push from the input node which is then stuck!!!
Didn't allow to push input
The buffer is full, so cannot push from the input node which is then stuck!!!
Didn't allow to push input
The buffer is full, so cannot push from the input node which is then stuck!!!
Didn't allow to push input
The buffer is full, so cannot push from the input node which is then stuck!!!
Didn't allow to push input
The buffer is full, so cannot push from the input node which is then stuck!!!
Didn't allow to push input
The buffer is full, so cannot push from the input node which is then stuck!!!
Didn't allow to push input
The buffer is full, so cannot push from the input node which is then stuck!!!
Didn't allow to push input
The buffer is full, so cannot push from the input node which is then stuck!!!
Didn't allow to push input
The buffer is full, so cannot push from the input node which is then stuck!!!
Didn't allow to push input
The buffer is full, so cannot push from the input node which is then stuck!!!
Didn't allow to push input
The buffer is full, so cannot push from the input node which is then stuck!!!
Didn't allow to push input
The buffer is full, so cannot push from the input node which is then stuck!!!
Didn't allow to push input
The buffer is full, so cannot push from the input node which is then stuck!!!
Didn't allow to push input
The buffer is full, so cannot push from the input node which is then stuck!!!
Didn't allow to push input
The buffer is full, so cannot push from the input node which is then stuck!!!
Didn't allow to push input
The buffer is full, so cannot push from the input node which is then stuck!!!
Didn't allow to push input
The buffer is full, so cannot push from the input node which is then stuck!!!
Didn't allow to push input
The buffer is full, so cannot push from the input node which is then stuck!!!
Didn't allow to push input
The buffer is full, so cannot push from the input node which is then stuck!!!
Didn't allow to push input
The buffer is full, so cannot push from the input node which is then stuck!!!
Didn't allow to push input
The buffer is full, so cannot push from the input node which is then stuck!!!
Didn't allow to push input
The buffer is full, so cannot push from the input node which is then stuck!!!
Didn't allow to push input
The buffer is full, so cannot push from the input node which is then stuck!!!
Didn't allow to push input
The buffer is full, so cannot push from the input node which is then stuck!!!
Didn't allow to push input
The buffer is full, so cannot push from the input node which is then stuck!!!
Didn't allow to push input
The buffer is full, so cannot push from the input node which is then stuck!!!
Didn't allow to push input
The buffer is full, so cannot push from the input node which is then stuck!!!
Didn't allow to push input
The buffer is full, so cannot push from the input node which is then stuck!!!
Didn't allow to push input
The buffer is full, so cannot push from the input node which is then stuck!!!
Didn't allow to push input
The buffer is full, so cannot push from the input node which is then stuck!!!
Didn't allow to push input
The buffer is full, so cannot push from the input node which is then stuck!!!
Didn't allow to push input
The buffer is full, so cannot push from the input node which is then stuck!!!
Didn't allow to push input
The buffer is full, so cannot push from the input node which is then stuck!!!
Didn't allow to push input
The buffer is full, so cannot push from the input node which is then stuck!!!
Didn't allow to push input
The buffer is full, so cannot push from the input node which is then stuck!!!
Didn't allow to push input
The buffer is full, so cannot push from the input node which is then stuck!!!
Didn't allow to push input
The buffer is full, so cannot push from the input node which is then stuck!!!
Didn't allow to push input
The buffer is full, so cannot push from the input node which is then stuck!!!
Didn't allow to push input
The buffer is full, so cannot push from the input node which is then stuck!!!
Didn't allow to push input
The buffer is full, so cannot push from the input node which is then stuck!!!
Didn't allow to push input
The buffer is full, so cannot push from the input node which is then stuck!!!
Didn't allow to push input
The buffer is full, so cannot push from the input node which is then stuck!!!
Didn't allow to push input
The buffer is full, so cannot push from the input node which is then stuck!!!
Didn't allow to push input
The buffer is full, so cannot push from the input node which is then stuck!!!
Didn't allow to push input
The buffer is full, so cannot push from the input node which is then stuck!!!
Didn't allow to push input
The buffer is full, so cannot push from the input node which is then stuck!!!
Didn't allow to push input
The buffer is full, so cannot push from the input node which is then stuck!!!
Didn't allow to push input
The buffer is full, so cannot push from the input node which is then stuck!!!
Didn't allow to push input
The buffer is full, so cannot push from the input node which is then stuck!!!
Didn't allow to push input
The buffer is full, so cannot push from the input node which is then stuck!!!
Didn't allow to push input
The buffer is full, so cannot push from the input node which is then stuck!!!
Didn't allow to push input
The buffer is full, so cannot push from the input node which is then stuck!!!
Didn't allow to push input
The buffer is full, so cannot push from the input node which is then stuck!!!
Didn't allow to push input
The buffer is full, so cannot push from the input node which is then stuck!!!
Didn't allow to push input
The buffer is full, so cannot push from the input node which is then stuck!!!
Didn't allow to push input
The buffer is full, so cannot push from the input node which is then stuck!!!
Didn't allow to push input
The buffer is full, so cannot push from the input node which is then stuck!!!
Didn't allow to push input
The buffer is full, so cannot push from the input node which is then stuck!!!
Didn't allow to push input
The buffer is full, so cannot push from the input node which is then stuck!!!
Didn't allow to push input
The buffer is full, so cannot push from the input node which is then stuck!!!
Didn't allow to push input
The buffer is full, so cannot push from the input node which is then stuck!!!
Didn't allow to push input
The buffer is full, so cannot push from the input node which is then stuck!!!
Didn't allow to push input
The buffer is full, so cannot push from the input node which is then stuck!!!
Didn't allow to push input
The buffer is full, so cannot push from the input node which is then stuck!!!
Didn't allow to push input
The buffer is full, so cannot push from the input node which is then stuck!!!
Didn't allow to push input
The buffer is full, so cannot push from the input node which is then stuck!!!
Didn't allow to push input
The buffer is full, so cannot push from the input node which is then stuck!!!
Didn't allow to push input
The buffer is full, so cannot push from the input node which is then stuck!!!
Didn't allow to push input
The buffer is full, so cannot push from the input node which is then stuck!!!
Didn't allow to push input
The buffer is full, so cannot push from the input node which is then stuck!!!
Didn't allow to push input
The buffer is full, so cannot push from the input node which is then stuck!!!
Didn't allow to push input
The buffer is full, so cannot push from the input node which is then stuck!!!
Didn't allow to push input
The buffer is full, so cannot push from the input node which is then stuck!!!
Didn't allow to push input
The buffer is full, so cannot push from the input node which is then stuck!!!
Didn't allow to push input
The buffer is full, so cannot push from the input node which is then stuck!!!
Didn't allow to push input
The buffer is full, so cannot push from the input node which is then stuck!!!
Didn't allow to push input
The buffer is full, so cannot push from the input node which is then stuck!!!
Allowed to push input: 131169052855500836
Didn't allow to push input
The buffer is full, so cannot push from the input node which is then stuck!!!
C10:Control16 (5): 24 fa  = 5
backpressure on 2nd input
instruction valid
C11:Control16 (6): 18f 1d2  = 5
backpressure on 2nd input
instruction valid
C12:Control16 (7): 1f3 13f  = 2
backpressure on 1st input
instruction valid
C13:Control16 (8): 31 142  = 5
backpressure on 2nd input
instruction valid
ACCEL ID: 0
Allowed to push input: 18401c401690023
Didn't allow to push input
The buffer is full, so cannot push from the input node which is then stuck!!!
C10:Control16 (5): 23 fa  = 5
backpressure on 2nd input
instruction valid
C11:Control16 (6): 1c4 1d2  = 5
backpressure on 2nd input
instruction valid
C12:Control16 (7): 1f3 fd  = 2
backpressure on 1st input
instruction valid
C13:Control16 (8): 123 142  = 5
backpressure on 2nd input
instruction valid
V10:Min16 (c): 24 fa 5  = 24
instruction valid
L10:Select16 (13): 0 1 5  = 1
instruction valid
C20:Control16 (9): 5 5  = 2
backpressure on 1st input
instruction valid
V11:Min16 (d): 18f 1d2 5  = 18f
instruction valid
L11:Select16 (14): 2 3 5  = 3
instruction valid
V12:Min16 (e): 1f3 13f 2  = 1f3
backpressure on 1st input
instruction valid
L12:Select16 (15): 4 5 2  = 4
instruction valid
C21:Control16 (a): 2 5  = 5
backpressure on 2nd input
instruction valid
V13:Min16 (f): 31 142 5  = 31
instruction valid
L13:Select16 (16): 6 7 5  = 7
instruction valid
ACCEL ID: 0
1677850	acc0  ISSUED 	id:4 const->port	port=20 (A )	const2:9223372036854775808 left=1/1	iters=0/1               ACTIVE
COMPLETED: const->port	port=20 (A )	const2:9223372036854775808 left=0/1	iters=0/1             inactive
Didn't allow to push input
The buffer is full, so cannot push from the input node which is then stuck!!!
V10:Min16 (12): 23 169 5  = 23
instruction valid
L10:Select16 (13): 8 9 5  = 9
instruction valid
C20:Control16 (9): 5 5  = 2
backpressure on 1st input
instruction valid
V11:Min16 (d): 1c4 184 5  = 1c4
instruction valid
L11:Select16 (14): a b 5  = b
instruction valid
C21:Control16 (a): 2 5  = 5
backpressure on 2nd input
instruction valid
V12:Min16 (e): 1f3 fd 2  = 1f3
backpressure on 1st input
instruction valid
L12:Select16 (15): c d 2  = c
instruction valid
V13:Min16 (f): 123 158 5  = 123
instruction valid
L13:Select16 (16): e f 5  = f
instruction valid
I10:Keep16 Imm:1 (17): 1 1 5  = 1
instruction valid
V20:Min16 (10): 24 18f 2  = 24
backpressure on 1st input
instruction valid
I11:Keep16 Imm:1 (18): 3 1 5  = 3
instruction valid
I12:Keep16 Imm:1 (19): 4 1 2  = 4
backpressure on 1st input
instruction valid
C30:Control16 (b): 2 5  = 5
backpressure on 2nd input
instruction valid
V21:Min16 (11): 1f3 31 5  = 1f3
instruction valid
I13:Keep16 Imm:1 (1a): 7 1 5  = 7
instruction valid
ACCEL ID: 0
Didn't allow to push input
The buffer is full, so cannot push from the input node which is then stuck!!!
I12:Keep16 Imm:1 (19): 4 1 2  = 4
backpressure on 1st input
instruction valid
I10:Keep16 Imm:1 (17): 9 1 5  = 9
instruction valid
C30:Control16 (b): 2 5  = 5
backpressure on 2nd input
instruction valid
V20:Min16 (10): 24 1c4 2  = 24
backpressure on 1st input
instruction valid
I11:Keep16 Imm:1 (18): b 1 5  = b
instruction valid
V21:Min16 (11): 1f3 123 5  = 1f3
instruction valid
I13:Keep16 Imm:1 (1a): f 1 5  = f
instruction valid
L20:Select16 (1b): 1 3 2  = 1
instruction valid
V30:Min16 (12): 24 1f3 5  = 24
instruction valid
L21:Select16 (1c): 4 7 5  = 7
instruction valid
ACCEL ID: 0
Didn't allow to push input
The buffer is full, so cannot push from the input node which is then stuck!!!
L20:Select16 (1b): 9 b 2  = 9
instruction valid
V30:Min16 (12): 24 1f3 5  = 24
instruction valid
L21:Select16 (1c): 4 f 5  = f
instruction valid
I20:Keep16 Imm:1 (1d): 1 1 5  = 1
instruction valid
keep:ICmpEq16 Imm:0 (21): 24 0  = 0
instruction valid
I21:Keep16 Imm:1 (1e): 7 1 5  = 7
instruction valid
ACCEL ID: 0
Didn't allow to push input
The buffer is full, so cannot push from the input node which is then stuck!!!
I20:Keep16 Imm:1 (1d): 9 1 5  = 9
instruction valid
keep:ICmpEq16 Imm:0 (21): 24 0  = 0
instruction valid
I21:Keep16 Imm:1 (1e): f 1 5  = f
instruction valid
val_o:Keep16 (22): 24 0  = 24
instruction valid
 and output discard!
L30:Select16 (1f): 1 7 5  = 7
instruction valid
ACCEL ID: 0
Didn't allow to push input
The buffer is full, so cannot push from the input node which is then stuck!!!
val_o:Keep16 (22): 24 0  = 24
instruction valid
 and output discard!
L30:Select16 (1f): 9 f 5  = f
instruction valid
I30:Select16 (20): 7 5  = 7
instruction valid
ACCEL ID: 0
Didn't allow to push input
The buffer is full, so cannot push from the input node which is then stuck!!!
I30:Select16 (20): f 5  = f
instruction valid
ind_o:Keep16 (23): 7 0  = 7
instruction valid
 and output discard!
temp:ICmpEQ (24): 7 7f  = 0
instruction valid
ACCEL ID: 0
Didn't allow to push input
ind_o:Keep16 (23): f 0  = f
instruction valid
 and output discard!
temp:ICmpEQ (24): f 7f  = 0
instruction valid
signal:Keep Imm:2 (25): 2 0  = 2
instruction valid
 and output discard!
ACCEL ID: 0
Allowed to push input: 7f
The buffer is full, so cannot push from the input node which is then stuck!!!
signal:Keep Imm:2 (25): 2 0  = 2
instruction valid
 and output discard!
ACCEL ID: 0
Didn't allow to push input
Allowed to push input: 7f
The buffer is full, so cannot push from the input node which is then stuck!!!
Didn't allow to push input
The buffer is full, so cannot push from the input node which is then stuck!!!
Didn't allow to push input
The buffer is full, so cannot push from the input node which is then stuck!!!
Didn't allow to push input
The buffer is full, so cannot push from the input node which is then stuck!!!
Didn't allow to push input
The buffer is full, so cannot push from the input node which is then stuck!!!
Didn't allow to push input
The buffer is full, so cannot push from the input node which is then stuck!!!
Didn't allow to push input
The buffer is full, so cannot push from the input node which is then stuck!!!
Didn't allow to push input
The buffer is full, so cannot push from the input node which is then stuck!!!
Didn't allow to push input
The buffer is full, so cannot push from the input node which is then stuck!!!
Didn't allow to push input
The buffer is full, so cannot push from the input node which is then stuck!!!
Didn't allow to push input
The buffer is full, so cannot push from the input node which is then stuck!!!
Didn't allow to push input
The buffer is full, so cannot push from the input node which is then stuck!!!
Didn't allow to push input
The buffer is full, so cannot push from the input node which is then stuck!!!
Didn't allow to push input
The buffer is full, so cannot push from the input node which is then stuck!!!
Didn't allow to push input
The buffer is full, so cannot push from the input node which is then stuck!!!
Didn't allow to push input
The buffer is full, so cannot push from the input node which is then stuck!!!
Didn't allow to push input
The buffer is full, so cannot push from the input node which is then stuck!!!
Didn't allow to push input
The buffer is full, so cannot push from the input node which is then stuck!!!
Didn't allow to push input
The buffer is full, so cannot push from the input node which is then stuck!!!
Didn't allow to push input
The buffer is full, so cannot push from the input node which is then stuck!!!
Didn't allow to push input
The buffer is full, so cannot push from the input node which is then stuck!!!
Didn't allow to push input
The buffer is full, so cannot push from the input node which is then stuck!!!
Didn't allow to push input
The buffer is full, so cannot push from the input node which is then stuck!!!
Didn't allow to push input
The buffer is full, so cannot push from the input node which is then stuck!!!
Didn't allow to push input
The buffer is full, so cannot push from the input node which is then stuck!!!
Didn't allow to push input
The buffer is full, so cannot push from the input node which is then stuck!!!
Didn't allow to push input
The buffer is full, so cannot push from the input node which is then stuck!!!
Didn't allow to push input
The buffer is full, so cannot push from the input node which is then stuck!!!
Didn't allow to push input
The buffer is full, so cannot push from the input node which is then stuck!!!
Didn't allow to push input
The buffer is full, so cannot push from the input node which is then stuck!!!
Didn't allow to push input
The buffer is full, so cannot push from the input node which is then stuck!!!
Didn't allow to push input
The buffer is full, so cannot push from the input node which is then stuck!!!
Didn't allow to push input
The buffer is full, so cannot push from the input node which is then stuck!!!
Didn't allow to push input
The buffer is full, so cannot push from the input node which is then stuck!!!
Didn't allow to push input
The buffer is full, so cannot push from the input node which is then stuck!!!
Didn't allow to push input
The buffer is full, so cannot push from the input node which is then stuck!!!
Didn't allow to push input
The buffer is full, so cannot push from the input node which is then stuck!!!
Didn't allow to push input
The buffer is full, so cannot push from the input node which is then stuck!!!
Didn't allow to push input
The buffer is full, so cannot push from the input node which is then stuck!!!
Didn't allow to push input
The buffer is full, so cannot push from the input node which is then stuck!!!
Didn't allow to push input
The buffer is full, so cannot push from the input node which is then stuck!!!
Didn't allow to push input
The buffer is full, so cannot push from the input node which is then stuck!!!
Didn't allow to push input
The buffer is full, so cannot push from the input node which is then stuck!!!
Didn't allow to push input
The buffer is full, so cannot push from the input node which is then stuck!!!
Didn't allow to push input
The buffer is full, so cannot push from the input node which is then stuck!!!
Didn't allow to push input
The buffer is full, so cannot push from the input node which is then stuck!!!
Didn't allow to push input
The buffer is full, so cannot push from the input node which is then stuck!!!
Didn't allow to push input
The buffer is full, so cannot push from the input node which is then stuck!!!
Didn't allow to push input
The buffer is full, so cannot push from the input node which is then stuck!!!
Didn't allow to push input
The buffer is full, so cannot push from the input node which is then stuck!!!
Didn't allow to push input
The buffer is full, so cannot push from the input node which is then stuck!!!
Didn't allow to push input
The buffer is full, so cannot push from the input node which is then stuck!!!
Didn't allow to push input
The buffer is full, so cannot push from the input node which is then stuck!!!
Didn't allow to push input
The buffer is full, so cannot push from the input node which is then stuck!!!
Didn't allow to push input
The buffer is full, so cannot push from the input node which is then stuck!!!
Didn't allow to push input
The buffer is full, so cannot push from the input node which is then stuck!!!
Didn't allow to push input
The buffer is full, so cannot push from the input node which is then stuck!!!
Didn't allow to push input
The buffer is full, so cannot push from the input node which is then stuck!!!
Didn't allow to push input
The buffer is full, so cannot push from the input node which is then stuck!!!
Didn't allow to push input
The buffer is full, so cannot push from the input node which is then stuck!!!
Didn't allow to push input
The buffer is full, so cannot push from the input node which is then stuck!!!
Didn't allow to push input
The buffer is full, so cannot push from the input node which is then stuck!!!
Didn't allow to push input
The buffer is full, so cannot push from the input node which is then stuck!!!
Didn't allow to push input
The buffer is full, so cannot push from the input node which is then stuck!!!
Didn't allow to push input
The buffer is full, so cannot push from the input node which is then stuck!!!
Didn't allow to push input
The buffer is full, so cannot push from the input node which is then stuck!!!
Didn't allow to push input
The buffer is full, so cannot push from the input node which is then stuck!!!
Didn't allow to push input
The buffer is full, so cannot push from the input node which is then stuck!!!
Didn't allow to push input
The buffer is full, so cannot push from the input node which is then stuck!!!
Didn't allow to push input
The buffer is full, so cannot push from the input node which is then stuck!!!
Didn't allow to push input
The buffer is full, so cannot push from the input node which is then stuck!!!
Didn't allow to push input
The buffer is full, so cannot push from the input node which is then stuck!!!
Didn't allow to push input
The buffer is full, so cannot push from the input node which is then stuck!!!
Didn't allow to push input
The buffer is full, so cannot push from the input node which is then stuck!!!
Didn't allow to push input
The buffer is full, so cannot push from the input node which is then stuck!!!
Didn't allow to push input
The buffer is full, so cannot push from the input node which is then stuck!!!
Didn't allow to push input
The buffer is full, so cannot push from the input node which is then stuck!!!
Didn't allow to push input
The buffer is full, so cannot push from the input node which is then stuck!!!
Didn't allow to push input
The buffer is full, so cannot push from the input node which is then stuck!!!
Didn't allow to push input
The buffer is full, so cannot push from the input node which is then stuck!!!
Didn't allow to push input
The buffer is full, so cannot push from the input node which is then stuck!!!
Didn't allow to push input
The buffer is full, so cannot push from the input node which is then stuck!!!
Didn't allow to push input
The buffer is full, so cannot push from the input node which is then stuck!!!
Didn't allow to push input
The buffer is full, so cannot push from the input node which is then stuck!!!
Didn't allow to push input
The buffer is full, so cannot push from the input node which is then stuck!!!
Didn't allow to push input
The buffer is full, so cannot push from the input node which is then stuck!!!
Didn't allow to push input
The buffer is full, so cannot push from the input node which is then stuck!!!
Didn't allow to push input
The buffer is full, so cannot push from the input node which is then stuck!!!
Didn't allow to push input
The buffer is full, so cannot push from the input node which is then stuck!!!
Didn't allow to push input
The buffer is full, so cannot push from the input node which is then stuck!!!
Didn't allow to push input
The buffer is full, so cannot push from the input node which is then stuck!!!
Didn't allow to push input
The buffer is full, so cannot push from the input node which is then stuck!!!
Didn't allow to push input
The buffer is full, so cannot push from the input node which is then stuck!!!
Didn't allow to push input
The buffer is full, so cannot push from the input node which is then stuck!!!
Didn't allow to push input
The buffer is full, so cannot push from the input node which is then stuck!!!
Didn't allow to push input
The buffer is full, so cannot push from the input node which is then stuck!!!
Didn't allow to push input
The buffer is full, so cannot push from the input node which is then stuck!!!
Didn't allow to push input
The buffer is full, so cannot push from the input node which is then stuck!!!
Didn't allow to push input
The buffer is full, so cannot push from the input node which is then stuck!!!
Didn't allow to push input
The buffer is full, so cannot push from the input node which is then stuck!!!
Didn't allow to push input
The buffer is full, so cannot push from the input node which is then stuck!!!
Didn't allow to push input
The buffer is full, so cannot push from the input node which is then stuck!!!
Didn't allow to push input
The buffer is full, so cannot push from the input node which is then stuck!!!
Didn't allow to push input
The buffer is full, so cannot push from the input node which is then stuck!!!
Didn't allow to push input
The buffer is full, so cannot push from the input node which is then stuck!!!
Didn't allow to push input
The buffer is full, so cannot push from the input node which is then stuck!!!
Didn't allow to push input
The buffer is full, so cannot push from the input node which is then stuck!!!
Didn't allow to push input
The buffer is full, so cannot push from the input node which is then stuck!!!
Didn't allow to push input
The buffer is full, so cannot push from the input node which is then stuck!!!
Didn't allow to push input
The buffer is full, so cannot push from the input node which is then stuck!!!
Didn't allow to push input
The buffer is full, so cannot push from the input node which is then stuck!!!
Didn't allow to push input
The buffer is full, so cannot push from the input node which is then stuck!!!
Didn't allow to push input
The buffer is full, so cannot push from the input node which is then stuck!!!
Didn't allow to push input
The buffer is full, so cannot push from the input node which is then stuck!!!
Didn't allow to push input
The buffer is full, so cannot push from the input node which is then stuck!!!
Didn't allow to push input
The buffer is full, so cannot push from the input node which is then stuck!!!
Didn't allow to push input
The buffer is full, so cannot push from the input node which is then stuck!!!
Didn't allow to push input
The buffer is full, so cannot push from the input node which is then stuck!!!
Didn't allow to push input
The buffer is full, so cannot push from the input node which is then stuck!!!
Didn't allow to push input
The buffer is full, so cannot push from the input node which is then stuck!!!
Didn't allow to push input
The buffer is full, so cannot push from the input node which is then stuck!!!
Didn't allow to push input
The buffer is full, so cannot push from the input node which is then stuck!!!
Didn't allow to push input
The buffer is full, so cannot push from the input node which is then stuck!!!
Didn't allow to push input
The buffer is full, so cannot push from the input node which is then stuck!!!
Didn't allow to push input
The buffer is full, so cannot push from the input node which is then stuck!!!
Didn't allow to push input
The buffer is full, so cannot push from the input node which is then stuck!!!
Didn't allow to push input
The buffer is full, so cannot push from the input node which is then stuck!!!
Didn't allow to push input
The buffer is full, so cannot push from the input node which is then stuck!!!
Didn't allow to push input
The buffer is full, so cannot push from the input node which is then stuck!!!
Didn't allow to push input
The buffer is full, so cannot push from the input node which is then stuck!!!
Didn't allow to push input
The buffer is full, so cannot push from the input node which is then stuck!!!
Didn't allow to push input
The buffer is full, so cannot push from the input node which is then stuck!!!
Didn't allow to push input
The buffer is full, so cannot push from the input node which is then stuck!!!
Didn't allow to push input
The buffer is full, so cannot push from the input node which is then stuck!!!
Didn't allow to push input
The buffer is full, so cannot push from the input node which is then stuck!!!
Didn't allow to push input
The buffer is full, so cannot push from the input node which is then stuck!!!
Didn't allow to push input
The buffer is full, so cannot push from the input node which is then stuck!!!
Didn't allow to push input
The buffer is full, so cannot push from the input node which is then stuck!!!
Didn't allow to push input
The buffer is full, so cannot push from the input node which is then stuck!!!
Didn't allow to push input
The buffer is full, so cannot push from the input node which is then stuck!!!
Didn't allow to push input
The buffer is full, so cannot push from the input node which is then stuck!!!
Didn't allow to push input
The buffer is full, so cannot push from the input node which is then stuck!!!
Didn't allow to push input
The buffer is full, so cannot push from the input node which is then stuck!!!
Didn't allow to push input
The buffer is full, so cannot push from the input node which is then stuck!!!
Didn't allow to push input
The buffer is full, so cannot push from the input node which is then stuck!!!
Didn't allow to push input
The buffer is full, so cannot push from the input node which is then stuck!!!
Didn't allow to push input
The buffer is full, so cannot push from the input node which is then stuck!!!
Didn't allow to push input
The buffer is full, so cannot push from the input node which is then stuck!!!
Didn't allow to push input
The buffer is full, so cannot push from the input node which is then stuck!!!
Didn't allow to push input
The buffer is full, so cannot push from the input node which is then stuck!!!
Didn't allow to push input
The buffer is full, so cannot push from the input node which is then stuck!!!
Didn't allow to push input
The buffer is full, so cannot push from the input node which is then stuck!!!
Didn't allow to push input
The buffer is full, so cannot push from the input node which is then stuck!!!
Didn't allow to push input
The buffer is full, so cannot push from the input node which is then stuck!!!
Didn't allow to push input
The buffer is full, so cannot push from the input node which is then stuck!!!
Didn't allow to push input
The buffer is full, so cannot push from the input node which is then stuck!!!
Didn't allow to push input
The buffer is full, so cannot push from the input node which is then stuck!!!
Didn't allow to push input
The buffer is full, so cannot push from the input node which is then stuck!!!
Didn't allow to push input
The buffer is full, so cannot push from the input node which is then stuck!!!
Didn't allow to push input
The buffer is full, so cannot push from the input node which is then stuck!!!
Didn't allow to push input
The buffer is full, so cannot push from the input node which is then stuck!!!
Didn't allow to push input
The buffer is full, so cannot push from the input node which is then stuck!!!
Didn't allow to push input
The buffer is full, so cannot push from the input node which is then stuck!!!
Didn't allow to push input
The buffer is full, so cannot push from the input node which is then stuck!!!
Didn't allow to push input
The buffer is full, so cannot push from the input node which is then stuck!!!
Didn't allow to push input
The buffer is full, so cannot push from the input node which is then stuck!!!
Didn't allow to push input
The buffer is full, so cannot push from the input node which is then stuck!!!
Didn't allow to push input
The buffer is full, so cannot push from the input node which is then stuck!!!
Didn't allow to push input
The buffer is full, so cannot push from the input node which is then stuck!!!
Didn't allow to push input
The buffer is full, so cannot push from the input node which is then stuck!!!
Didn't allow to push input
The buffer is full, so cannot push from the input node which is then stuck!!!
Didn't allow to push input
The buffer is full, so cannot push from the input node which is then stuck!!!
Didn't allow to push input
The buffer is full, so cannot push from the input node which is then stuck!!!
Didn't allow to push input
The buffer is full, so cannot push from the input node which is then stuck!!!
Didn't allow to push input
The buffer is full, so cannot push from the input node which is then stuck!!!
Didn't allow to push input
The buffer is full, so cannot push from the input node which is then stuck!!!
Didn't allow to push input
The buffer is full, so cannot push from the input node which is then stuck!!!
Didn't allow to push input
The buffer is full, so cannot push from the input node which is then stuck!!!
Didn't allow to push input
The buffer is full, so cannot push from the input node which is then stuck!!!
Didn't allow to push input
The buffer is full, so cannot push from the input node which is then stuck!!!
Didn't allow to push input
The buffer is full, so cannot push from the input node which is then stuck!!!
Didn't allow to push input
The buffer is full, so cannot push from the input node which is then stuck!!!
Didn't allow to push input
The buffer is full, so cannot push from the input node which is then stuck!!!
Didn't allow to push input
The buffer is full, so cannot push from the input node which is then stuck!!!
Didn't allow to push input
The buffer is full, so cannot push from the input node which is then stuck!!!
Didn't allow to push input
The buffer is full, so cannot push from the input node which is then stuck!!!
Didn't allow to push input
The buffer is full, so cannot push from the input node which is then stuck!!!
Didn't allow to push input
The buffer is full, so cannot push from the input node which is then stuck!!!
Didn't allow to push input
The buffer is full, so cannot push from the input node which is then stuck!!!
Didn't allow to push input
The buffer is full, so cannot push from the input node which is then stuck!!!
Didn't allow to push input
The buffer is full, so cannot push from the input node which is then stuck!!!
Didn't allow to push input
The buffer is full, so cannot push from the input node which is then stuck!!!
Didn't allow to push input
The buffer is full, so cannot push from the input node which is then stuck!!!
Didn't allow to push input
The buffer is full, so cannot push from the input node which is then stuck!!!
Didn't allow to push input
The buffer is full, so cannot push from the input node which is then stuck!!!
Didn't allow to push input
The buffer is full, so cannot push from the input node which is then stuck!!!
Didn't allow to push input
The buffer is full, so cannot push from the input node which is then stuck!!!
Didn't allow to push input
The buffer is full, so cannot push from the input node which is then stuck!!!
Didn't allow to push input
The buffer is full, so cannot push from the input node which is then stuck!!!
Didn't allow to push input
The buffer is full, so cannot push from the input node which is then stuck!!!
Didn't allow to push input
The buffer is full, so cannot push from the input node which is then stuck!!!
Didn't allow to push input
The buffer is full, so cannot push from the input node which is then stuck!!!
Didn't allow to push input
The buffer is full, so cannot push from the input node which is then stuck!!!
Didn't allow to push input
The buffer is full, so cannot push from the input node which is then stuck!!!
Didn't allow to push input
The buffer is full, so cannot push from the input node which is then stuck!!!
Didn't allow to push input
The buffer is full, so cannot push from the input node which is then stuck!!!
Didn't allow to push input
The buffer is full, so cannot push from the input node which is then stuck!!!
Didn't allow to push input
The buffer is full, so cannot push from the input node which is then stuck!!!
Didn't allow to push input
The buffer is full, so cannot push from the input node which is then stuck!!!
Didn't allow to push input
The buffer is full, so cannot push from the input node which is then stuck!!!
Didn't allow to push input
The buffer is full, so cannot push from the input node which is then stuck!!!
Didn't allow to push input
The buffer is full, so cannot push from the input node which is then stuck!!!
Didn't allow to push input
The buffer is full, so cannot push from the input node which is then stuck!!!
Didn't allow to push input
The buffer is full, so cannot push from the input node which is then stuck!!!
Didn't allow to push input
The buffer is full, so cannot push from the input node which is then stuck!!!
Didn't allow to push input
The buffer is full, so cannot push from the input node which is then stuck!!!
Didn't allow to push input
The buffer is full, so cannot push from the input node which is then stuck!!!
Didn't allow to push input
The buffer is full, so cannot push from the input node which is then stuck!!!
Didn't allow to push input
The buffer is full, so cannot push from the input node which is then stuck!!!
Didn't allow to push input
The buffer is full, so cannot push from the input node which is then stuck!!!
Didn't allow to push input
The buffer is full, so cannot push from the input node which is then stuck!!!
Didn't allow to push input
The buffer is full, so cannot push from the input node which is then stuck!!!
Didn't allow to push input
The buffer is full, so cannot push from the input node which is then stuck!!!
Didn't allow to push input
The buffer is full, so cannot push from the input node which is then stuck!!!
Didn't allow to push input
The buffer is full, so cannot push from the input node which is then stuck!!!
Didn't allow to push input
The buffer is full, so cannot push from the input node which is then stuck!!!
Didn't allow to push input
The buffer is full, so cannot push from the input node which is then stuck!!!
Didn't allow to push input
The buffer is full, so cannot push from the input node which is then stuck!!!
Didn't allow to push input
The buffer is full, so cannot push from the input node which is then stuck!!!
Didn't allow to push input
The buffer is full, so cannot push from the input node which is then stuck!!!
Didn't allow to push input
The buffer is full, so cannot push from the input node which is then stuck!!!
Didn't allow to push input
The buffer is full, so cannot push from the input node which is then stuck!!!
Didn't allow to push input
The buffer is full, so cannot push from the input node which is then stuck!!!
Didn't allow to push input
The buffer is full, so cannot push from the input node which is then stuck!!!
Didn't allow to push input
The buffer is full, so cannot push from the input node which is then stuck!!!
Didn't allow to push input
The buffer is full, so cannot push from the input node which is then stuck!!!
Didn't allow to push input
The buffer is full, so cannot push from the input node which is then stuck!!!
Didn't allow to push input
The buffer is full, so cannot push from the input node which is then stuck!!!
Didn't allow to push input
The buffer is full, so cannot push from the input node which is then stuck!!!
Didn't allow to push input
The buffer is full, so cannot push from the input node which is then stuck!!!
Didn't allow to push input
The buffer is full, so cannot push from the input node which is then stuck!!!
Didn't allow to push input
The buffer is full, so cannot push from the input node which is then stuck!!!
Didn't allow to push input
The buffer is full, so cannot push from the input node which is then stuck!!!
Didn't allow to push input
The buffer is full, so cannot push from the input node which is then stuck!!!
Didn't allow to push input
The buffer is full, so cannot push from the input node which is then stuck!!!
Didn't allow to push input
The buffer is full, so cannot push from the input node which is then stuck!!!
Didn't allow to push input
The buffer is full, so cannot push from the input node which is then stuck!!!
Didn't allow to push input
The buffer is full, so cannot push from the input node which is then stuck!!!
Didn't allow to push input
The buffer is full, so cannot push from the input node which is then stuck!!!
Didn't allow to push input
The buffer is full, so cannot push from the input node which is then stuck!!!
Didn't allow to push input
The buffer is full, so cannot push from the input node which is then stuck!!!
Didn't allow to push input
The buffer is full, so cannot push from the input node which is then stuck!!!
Didn't allow to push input
The buffer is full, so cannot push from the input node which is then stuck!!!
Didn't allow to push input
The buffer is full, so cannot push from the input node which is then stuck!!!
Didn't allow to push input
The buffer is full, so cannot push from the input node which is then stuck!!!
Didn't allow to push input
The buffer is full, so cannot push from the input node which is then stuck!!!
Didn't allow to push input
The buffer is full, so cannot push from the input node which is then stuck!!!
Didn't allow to push input
The buffer is full, so cannot push from the input node which is then stuck!!!
Didn't allow to push input
The buffer is full, so cannot push from the input node which is then stuck!!!
Didn't allow to push input
The buffer is full, so cannot push from the input node which is then stuck!!!
Didn't allow to push input
The buffer is full, so cannot push from the input node which is then stuck!!!
Didn't allow to push input
The buffer is full, so cannot push from the input node which is then stuck!!!
Didn't allow to push input
The buffer is full, so cannot push from the input node which is then stuck!!!
Didn't allow to push input
The buffer is full, so cannot push from the input node which is then stuck!!!
Didn't allow to push input
The buffer is full, so cannot push from the input node which is then stuck!!!
Didn't allow to push input
The buffer is full, so cannot push from the input node which is then stuck!!!
Didn't allow to push input
The buffer is full, so cannot push from the input node which is then stuck!!!
Didn't allow to push input
The buffer is full, so cannot push from the input node which is then stuck!!!
Didn't allow to push input
The buffer is full, so cannot push from the input node which is then stuck!!!
Didn't allow to push input
The buffer is full, so cannot push from the input node which is then stuck!!!
Didn't allow to push input
The buffer is full, so cannot push from the input node which is then stuck!!!
Didn't allow to push input
The buffer is full, so cannot push from the input node which is then stuck!!!
Didn't allow to push input
The buffer is full, so cannot push from the input node which is then stuck!!!
Didn't allow to push input
The buffer is full, so cannot push from the input node which is then stuck!!!
Didn't allow to push input
The buffer is full, so cannot push from the input node which is then stuck!!!
Didn't allow to push input
The buffer is full, so cannot push from the input node which is then stuck!!!
Didn't allow to push input
The buffer is full, so cannot push from the input node which is then stuck!!!
Didn't allow to push input
The buffer is full, so cannot push from the input node which is then stuck!!!
Didn't allow to push input
The buffer is full, so cannot push from the input node which is then stuck!!!
Didn't allow to push input
The buffer is full, so cannot push from the input node which is then stuck!!!
Didn't allow to push input
The buffer is full, so cannot push from the input node which is then stuck!!!
Didn't allow to push input
The buffer is full, so cannot push from the input node which is then stuck!!!
Didn't allow to push input
The buffer is full, so cannot push from the input node which is then stuck!!!
Didn't allow to push input
The buffer is full, so cannot push from the input node which is then stuck!!!
Didn't allow to push input
The buffer is full, so cannot push from the input node which is then stuck!!!
Didn't allow to push input
The buffer is full, so cannot push from the input node which is then stuck!!!
Didn't allow to push input
The buffer is full, so cannot push from the input node which is then stuck!!!
Didn't allow to push input
The buffer is full, so cannot push from the input node which is then stuck!!!
Didn't allow to push input
The buffer is full, so cannot push from the input node which is then stuck!!!
Didn't allow to push input
The buffer is full, so cannot push from the input node which is then stuck!!!
Didn't allow to push input
The buffer is full, so cannot push from the input node which is then stuck!!!
Didn't allow to push input
The buffer is full, so cannot push from the input node which is then stuck!!!
Didn't allow to push input
The buffer is full, so cannot push from the input node which is then stuck!!!
Didn't allow to push input
The buffer is full, so cannot push from the input node which is then stuck!!!
Didn't allow to push input
The buffer is full, so cannot push from the input node which is then stuck!!!
Didn't allow to push input
The buffer is full, so cannot push from the input node which is then stuck!!!
Didn't allow to push input
The buffer is full, so cannot push from the input node which is then stuck!!!
Didn't allow to push input
The buffer is full, so cannot push from the input node which is then stuck!!!
Didn't allow to push input
The buffer is full, so cannot push from the input node which is then stuck!!!
Didn't allow to push input
The buffer is full, so cannot push from the input node which is then stuck!!!
Didn't allow to push input
The buffer is full, so cannot push from the input node which is then stuck!!!
Didn't allow to push input
The buffer is full, so cannot push from the input node which is then stuck!!!
Didn't allow to push input
The buffer is full, so cannot push from the input node which is then stuck!!!
Didn't allow to push input
The buffer is full, so cannot push from the input node which is then stuck!!!
Didn't allow to push input
The buffer is full, so cannot push from the input node which is then stuck!!!
Didn't allow to push input
The buffer is full, so cannot push from the input node which is then stuck!!!
Didn't allow to push input
The buffer is full, so cannot push from the input node which is then stuck!!!
Didn't allow to push input
The buffer is full, so cannot push from the input node which is then stuck!!!
Didn't allow to push input
The buffer is full, so cannot push from the input node which is then stuck!!!
Didn't allow to push input
The buffer is full, so cannot push from the input node which is then stuck!!!
Didn't allow to push input
The buffer is full, so cannot push from the input node which is then stuck!!!
Didn't allow to push input
The buffer is full, so cannot push from the input node which is then stuck!!!
Didn't allow to push input
The buffer is full, so cannot push from the input node which is then stuck!!!
Didn't allow to push input
The buffer is full, so cannot push from the input node which is then stuck!!!
Didn't allow to push input
The buffer is full, so cannot push from the input node which is then stuck!!!
Didn't allow to push input
The buffer is full, so cannot push from the input node which is then stuck!!!
Didn't allow to push input
The buffer is full, so cannot push from the input node which is then stuck!!!
Didn't allow to push input
The buffer is full, so cannot push from the input node which is then stuck!!!
Didn't allow to push input
The buffer is full, so cannot push from the input node which is then stuck!!!
Didn't allow to push input
The buffer is full, so cannot push from the input node which is then stuck!!!
Didn't allow to push input
The buffer is full, so cannot push from the input node which is then stuck!!!
Didn't allow to push input
The buffer is full, so cannot push from the input node which is then stuck!!!
Didn't allow to push input
The buffer is full, so cannot push from the input node which is then stuck!!!
Didn't allow to push input
The buffer is full, so cannot push from the input node which is then stuck!!!
Didn't allow to push input
The buffer is full, so cannot push from the input node which is then stuck!!!
Didn't allow to push input
The buffer is full, so cannot push from the input node which is then stuck!!!
Didn't allow to push input
The buffer is full, so cannot push from the input node which is then stuck!!!
Didn't allow to push input
The buffer is full, so cannot push from the input node which is then stuck!!!
Didn't allow to push input
The buffer is full, so cannot push from the input node which is then stuck!!!
Didn't allow to push input
The buffer is full, so cannot push from the input node which is then stuck!!!
Didn't allow to push input
The buffer is full, so cannot push from the input node which is then stuck!!!
Didn't allow to push input
The buffer is full, so cannot push from the input node which is then stuck!!!
Didn't allow to push input
The buffer is full, so cannot push from the input node which is then stuck!!!
Didn't allow to push input
The buffer is full, so cannot push from the input node which is then stuck!!!
[...]
Didn't allow to push input
The buffer is full, so cannot push from the input node which is then stuck!!!
Didn't allow to push input
The buffer is full, so cannot push from the input node which is then stuck!!!
Didn't allow to push input
The buffer is full, so cannot push from the input node which is then stuck!!!
Didn't allow to push input
The buffer is full, so cannot push from the input node which is then stuck!!!
Didn't allow to push input
The buffer is full, so cannot push from the input node which is then stuck!!!
Didn't allow to push input
The buffer is full, so cannot push from the input node which is then stuck!!!
Didn't allow to push input
The buffer is full, so cannot push from the input node which is then stuck!!!
Didn't allow to push input
The buffer is full, so cannot push from the input node which is then stuck!!!
Didn't allow to push input
The buffer is full, so cannot push from the input node which is then stuck!!!
Didn't allow to push input
The buffer is full, so cannot push from the input node which is then stuck!!!
Didn't allow to push input
The buffer is full, so cannot push from the input node which is then stuck!!!
Didn't allow to push input
The buffer is full, so cannot push from the input node which is then stuck!!!
Didn't allow to push input
The buffer is full, so cannot push from the input node which is then stuck!!!
Didn't allow to push input
The buffer is full, so cannot push from the input node which is then stuck!!!
Didn't allow to push input
The buffer is full, so cannot push from the input node which is then stuck!!!
Didn't allow to push input
The buffer is full, so cannot push from the input node which is then stuck!!!
Didn't allow to push input
The buffer is full, so cannot push from the input node which is then stuck!!!
Didn't allow to push input
The buffer is full, so cannot push from the input node which is then stuck!!!
Didn't allow to push input
The buffer is full, so cannot push from the input node which is then stuck!!!
Didn't allow to push input
The buffer is full, so cannot push from the input node which is then stuck!!!
Didn't allow to push input
The buffer is full, so cannot push from the input node which is then stuck!!!
Didn't allow to push input
The buffer is full, so cannot push from the input node which is then stuck!!!
Didn't allow to push input
The buffer is full, so cannot push from the input node which is then stuck!!!
Didn't allow to push input
The buffer is full, so cannot push from the input node which is then stuck!!!
Didn't allow to push input
The buffer is full, so cannot push from the input node which is then stuck!!!
Didn't allow to push input
The buffer is full, so cannot push from the input node which is then stuck!!!
Didn't allow to push input
The buffer is full, so cannot push from the input node which is then stuck!!!
Didn't allow to push input
The buffer is full, so cannot push from the input node which is then stuck!!!
Didn't allow to push input
The buffer is full, so cannot push from the input node which is then stuck!!!
Didn't allow to push input
The buffer is full, so cannot push from the input node which is then stuck!!!
Didn't allow to push input
The buffer is full, so cannot push from the input node which is then stuck!!!
Didn't allow to push input
The buffer is full, so cannot push from the input node which is then stuck!!!
Didn't allow to push input
The buffer is full, so cannot push from the input node which is then stuck!!!
Didn't allow to push input
The buffer is full, so cannot push from the input node which is then stuck!!!
Didn't allow to push input
The buffer is full, so cannot push from the input node which is then stuck!!!
Didn't allow to push input
The buffer is full, so cannot push from the input node which is then stuck!!!
Didn't allow to push input
The buffer is full, so cannot push from the input node which is then stuck!!!
Didn't allow to push input
The buffer is full, so cannot push from the input node which is then stuck!!!
Didn't allow to push input
The buffer is full, so cannot push from the input node which is then stuck!!!
Didn't allow to push input
The buffer is full, so cannot push from the input node which is then stuck!!!
Didn't allow to push input
The buffer is full, so cannot push from the input node which is then stuck!!!
Didn't allow to push input
The buffer is full, so cannot push from the input node which is then stuck!!!
Didn't allow to push input
The buffer is full, so cannot push from the input node which is then stuck!!!
Didn't allow to push input
The buffer is full, so cannot push from the input node which is then stuck!!!
Didn't allow to push input
The buffer is full, so cannot push from the input node which is then stuck!!!
Didn't allow to push input
The buffer is full, so cannot push from the input node which is then stuck!!!
Didn't allow to push input
The buffer is full, so cannot push from the input node which is then stuck!!!
Didn't allow to push input
The buffer is full, so cannot push from the input node which is then stuck!!!
Didn't allow to push input
The buffer is full, so cannot push from the input node which is then stuck!!!
Didn't allow to push input
The buffer is full, so cannot push from the input node which is then stuck!!!
Didn't allow to push input
The buffer is full, so cannot push from the input node which is then stuck!!!
Didn't allow to push input
The buffer is full, so cannot push from the input node which is then stuck!!!
Didn't allow to push input
The buffer is full, so cannot push from the input node which is then stuck!!!
Didn't allow to push input
The buffer is full, so cannot push from the input node which is then stuck!!!
Didn't allow to push input
The buffer is full, so cannot push from the input node which is then stuck!!!
Didn't allow to push input
The buffer is full, so cannot push from the input node which is then stuck!!!
Didn't allow to push input
The buffer is full, so cannot push from the input node which is then stuck!!!
Didn't allow to push input
The buffer is full, so cannot push from the input node which is then stuck!!!
Didn't allow to push input
The buffer is full, so cannot push from the input node which is then stuck!!!
Didn't allow to push input
The buffer is full, so cannot push from the input node which is then stuck!!!
Didn't allow to push input
The buffer is full, so cannot push from the input node which is then stuck!!!
Didn't allow to push input
The buffer is full, so cannot push from the input node which is then stuck!!!
Didn't allow to push input
The buffer is full, so cannot push from the input node which is then stuck!!!
Didn't allow to push input
The buffer is full, so cannot push from the input node which is then stuck!!!
Didn't allow to push input
The buffer is full, so cannot push from the input node which is then stuck!!!
Didn't allow to push input
The buffer is full, so cannot push from the input node which is then stuck!!!
Didn't allow to push input
The buffer is full, so cannot push from the input node which is then stuck!!!
Didn't allow to push input
The buffer is full, so cannot push from the input node which is then stuck!!!
Didn't allow to push input
The buffer is full, so cannot push from the input node which is then stuck!!!
Didn't allow to push input
The buffer is full, so cannot push from the input node which is then stuck!!!
Didn't allow to push input
The buffer is full, so cannot push from the input node which is then stuck!!!
Didn't allow to push input
The buffer is full, so cannot push from the input node which is then stuck!!!
Didn't allow to push input
The buffer is full, so cannot push from the input node which is then stuck!!!
Didn't allow to push input
The buffer is full, so cannot push from the input node which is then stuck!!!
Didn't allow to push input
The buffer is full, so cannot push from the input node which is then stuck!!!
Didn't allow to push input
The buffer is full, so cannot push from the input node which is then stuck!!!
Didn't allow to push input
The buffer is full, so cannot push from the input node which is then stuck!!!
Didn't allow to push input
The buffer is full, so cannot push from the input node which is then stuck!!!
Didn't allow to push input
The buffer is full, so cannot push from the input node which is then stuck!!!
Didn't allow to push input
The buffer is full, so cannot push from the input node which is then stuck!!!
Didn't allow to push input
The buffer is full, so cannot push from the input node which is then stuck!!!
Didn't allow to push input
The buffer is full, so cannot push from the input node which is then stuck!!!
Didn't allow to push input
The buffer is full, so cannot push from the input node which is then stuck!!!
Didn't allow to push input
The buffer is full, so cannot push from the input node which is then stuck!!!
Didn't allow to push input
The buffer is full, so cannot push from the input node which is then stuck!!!
Didn't allow to push input
The buffer is full, so cannot push from the input node which is then stuck!!!
Didn't allow to push input
The buffer is full, so cannot push from the input node which is then stuck!!!
Didn't allow to push input
The buffer is full, so cannot push from the input node which is then stuck!!!
Didn't allow to push input
The buffer is full, so cannot push from the input node which is then stuck!!!
Didn't allow to push input
The buffer is full, so cannot push from the input node which is then stuck!!!
Didn't allow to push input
The buffer is full, so cannot push from the input node which is then stuck!!!
Didn't allow to push input
The buffer is full, so cannot push from the input node which is then stuck!!!
Didn't allow to push input
The buffer is full, so cannot push from the input node which is then stuck!!!
Didn't allow to push input
The buffer is full, so cannot push from the input node which is then stuck!!!
Didn't allow to push input
The buffer is full, so cannot push from the input node which is then stuck!!!
Didn't allow to push input
The buffer is full, so cannot push from the input node which is then stuck!!!
Didn't allow to push input
The buffer is full, so cannot push from the input node which is then stuck!!!
Didn't allow to push input
The buffer is full, so cannot push from the input node which is then stuck!!!
Didn't allow to push input
The buffer is full, so cannot push from the input node which is then stuck!!!
Didn't allow to push input
The buffer is full, so cannot push from the input node which is then stuck!!!
Didn't allow to push input
The buffer is full, so cannot push from the input node which is then stuck!!!
Didn't allow to push input
The buffer is full, so cannot push from the input node which is then stuck!!!
Didn't allow to push input
The buffer is full, so cannot push from the input node which is then stuck!!!
Didn't allow to push input
The buffer is full, so cannot push from the input node which is then stuck!!!
Didn't allow to push input
The buffer is full, so cannot push from the input node which is then stuck!!!
Didn't allow to push input
The buffer is full, so cannot push from the input node which is then stuck!!!
Didn't allow to push input
The buffer is full, so cannot push from the input node which is then stuck!!!
Didn't allow to push input
The buffer is full, so cannot push from the input node which is then stuck!!!
Didn't allow to push input
The buffer is full, so cannot push from the input node which is then stuck!!!
Didn't allow to push input
The buffer is full, so cannot push from the input node which is then stuck!!!
Didn't allow to push input
The buffer is full, so cannot push from the input node which is then stuck!!!
Didn't allow to push input
The buffer is full, so cannot push from the input node which is then stuck!!!
Didn't allow to push input
The buffer is full, so cannot push from the input node which is then stuck!!!
Didn't allow to push input
The buffer is full, so cannot push from the input node which is then stuck!!!
Didn't allow to push input
The buffer is full, so cannot push from the input node which is then stuck!!!
Didn't allow to push input
The buffer is full, so cannot push from the input node which is then stuck!!!
Didn't allow to push input
The buffer is full, so cannot push from the input node which is then stuck!!!
Didn't allow to push input
The buffer is full, so cannot push from the input node which is then stuck!!!
Didn't allow to push input
The buffer is full, so cannot push from the input node which is then stuck!!!
Didn't allow to push input
The buffer is full, so cannot push from the input node which is then stuck!!!
Didn't allow to push input
The buffer is full, so cannot push from the input node which is then stuck!!!
Didn't allow to push input
The buffer is full, so cannot push from the input node which is then stuck!!!
Didn't allow to push input
The buffer is full, so cannot push from the input node which is then stuck!!!
Didn't allow to push input
The buffer is full, so cannot push from the input node which is then stuck!!!
Didn't allow to push input
The buffer is full, so cannot push from the input node which is then stuck!!!
Didn't allow to push input
The buffer is full, so cannot push from the input node which is then stuck!!!
Didn't allow to push input
The buffer is full, so cannot push from the input node which is then stuck!!!
Didn't allow to push input
The buffer is full, so cannot push from the input node which is then stuck!!!
Didn't allow to push input
The buffer is full, so cannot push from the input node which is then stuck!!!
Didn't allow to push input
The buffer is full, so cannot push from the input node which is then stuck!!!
Didn't allow to push input
The buffer is full, so cannot push from the input node which is then stuck!!!
Didn't allow to push input
The buffer is full, so cannot push from the input node which is then stuck!!!
Didn't allow to push input
The buffer is full, so cannot push from the input node which is then stuck!!!
Didn't allow to push input
The buffer is full, so cannot push from the input node which is then stuck!!!
Didn't allow to push input
The buffer is full, so cannot push from the input node which is then stuck!!!
Didn't allow to push input
The buffer is full, so cannot push from the input node which is then stuck!!!
Didn't allow to push input
The buffer is full, so cannot push from the input node which is then stuck!!!
Didn't allow to push input
The buffer is full, so cannot push from the input node which is then stuck!!!
Didn't allow to push input
The buffer is full, so cannot push from the input node which is then stuck!!!
Didn't allow to push input
The buffer is full, so cannot push from the input node which is then stuck!!!
Didn't allow to push input
The buffer is full, so cannot push from the input node which is then stuck!!!
Didn't allow to push input
The buffer is full, so cannot push from the input node which is then stuck!!!
Didn't allow to push input
The buffer is full, so cannot push from the input node which is then stuck!!!
Didn't allow to push input
The buffer is full, so cannot push from the input node which is then stuck!!!
Didn't allow to push input
The buffer is full, so cannot push from the input node which is then stuck!!!
Didn't allow to push input
The buffer is full, so cannot push from the input node which is then stuck!!!
Didn't allow to push input
The buffer is full, so cannot push from the input node which is then stuck!!!
Didn't allow to push input
The buffer is full, so cannot push from the input node which is then stuck!!!
Didn't allow to push input
The buffer is full, so cannot push from the input node which is then stuck!!!
Didn't allow to push input
The buffer is full, so cannot push from the input node which is then stuck!!!
breakpointDidn't allow to push input
The buffer is full, so cannot push from the input node which is then stuck!!!
breakpointDidn't allow to push input
The buffer is full, so cannot push from the input node which is then stuck!!!
breakpointDidn't allow to push input
The buffer is full, so cannot push from the input node which is then stuck!!!
breakpointDidn't allow to push input
The buffer is full, so cannot push from the input node which is then stuck!!!
breakpointDidn't allow to push input
The buffer is full, so cannot push from the input node which is then stuck!!!
breakpointDidn't allow to push input
The buffer is full, so cannot push from the input node which is then stuck!!!
breakpointDidn't allow to push input
The buffer is full, so cannot push from the input node which is then stuck!!!
breakpointDidn't allow to push input
The buffer is full, so cannot push from the input node which is then stuck!!!
breakpointDidn't allow to push input
The buffer is full, so cannot push from the input node which is then stuck!!!
breakpointDidn't allow to push input
The buffer is full, so cannot push from the input node which is then stuck!!!
breakpoint
*** ROI STATISTICS for CORE ID: 0 ***
Simulator Time: 0 sec
Cycles: 0
Control Core Insts Issued: 0
Control Core Discarded Insts Issued: 0
Control Core Discarded Inst Stalls: -nan
Control Core Config Stalls: -nan
Control Core Wait Stalls:   

ACCEL 0 STATS ***
Commands Issued: 0
CGRA Instances: 0 -- Activity Ratio: -nan, DFGs / Cycle: -nan
CGRA Insts / Computation Instance: -nan
CGRA Insts / Cycle: -nan (overall activity factor)
Mapped DFG utilization: -nan
Data availability ratio: inf
Percentage bank conflicts: -nan
Allowed input port consumption rate: inf, inf, inf, -nan, -nan, -nan, -nan, -nan, -nan, -nan, -nan, -nan, -nan, -nan, -nan, -nan, -nan, -nan, -nan, -nan, -nan, -nan, -nan, -nan, -nan, -nan, -nan, -nan, -nan, -nan, -nan, -nan, 
percentage time we could not serve input ports: inf, inf, inf, -nan, -nan, -nan, -nan, -nan, -nan, -nan, -nan, -nan, -nan, -nan, -nan, -nan, -nan, -nan, -nan, -nan, -nan, -nan, -nan, -nan, -nan, -nan, -nan, -nan, -nan, -nan, -nan, -nan, 
Cycle Breakdown: CONFIG:-nan ISSUED:-nan ISSUED_MULTI:-nan TEMPORAL_ONLY:-nan CONST_FILL:-nan SCR_FILL:-nan DMA_FILL:-nan REC_WAIT:-nan CORE_WAIT:-nan SCR_BAR_WAIT:-nan DMA_WRITE:-nan CMD_QUEUE:-nan CGRA_BACK:-nan DRAIN:-nan NOT_IN_USE:-nan 
Bandwidth Table: (B/c=Bytes/cycle, B/r=Bytes/request) -- Breakdown (sources/destinatinos): 
SP_READ:	(0 B/c, 0 B/r)  -- 
SP_WRITE:	(0 B/c, 0 B/r)  -- 
DMA_LOAD:	(0 B/c, 0 B/r)  -- 
DMA_STORE:	(0 B/c, 0 B/r)  -- 
REC_BUS_READ:	inf(infB/c, 36B/r)  -- const:inf(infB/c, 36B/r) 
---- ACCEL 0 STATUS ----
MEM REQs OUTSTANDING: 0
Active SEs:
port->dma acc_size=8 stride=8 bytes_comp=0 addr=7fffffffffffe768 strides_left=4 out_port=4 garbage=0               ACTIVE
port->dma acc_size=8 stride=8 bytes_comp=0 addr=7fffffffffffe748 strides_left=4 out_port=10 garbage=0               ACTIVE
remote core net stream _num_elem1000	addr_port= 21	val_port22
Waiting SEs: (0)
Ports:
In Port 20 A:   Mem Size: 1  Num Ready: 0
In Port 12 B:   Mem Size: 1  Num Ready: 0
In Port 10 size:   Mem Size: 0  Num Ready: 4
Ind In Port 23:   Mem Size: 0  Num Ready: 0
Ind In Port 24:   Mem Size: 0  Num Ready: 0
Ind In Port 25:   Mem Size: 0  Num Ready: 0
Ind In Port 26:   Mem Size: 0  Num Ready: 0
Ind In Port 27:   Mem Size: 0  Num Ready: 0
Ind In Port 28:   Mem Size: 0  Num Ready: 0
Ind In Port 29:   Mem Size: 0  Num Ready: 0
Ind In Port 30:   Mem Size: 0  Num Ready: 0
Ind In Port 31:   Mem Size: 0  Num Ready: 0
Out Port 4 val:   In Flight: 0  Num Ready: 0  Mem Size: 0
Out Port 10 ind:   In Flight: 0  Num Ready: 0  Mem Size: 0
Out Port 6 signal:   In Flight: 0  Num Ready: 0  Mem Size: 0
PORT -> DMA Streams Not Empty

Cores used: 1bitmask: 1
Total Memory Activity: -nan

 -- Parallelization Estimates --
Multi-Pipeline Cycles (cores:cycles): 1:0 2:0 3:0 4:0 5:0 6:0 7:0 8:0 9:0 10:0 11:0 12:0 13:0 14:0 15:0 16:0 17:0 18:0 
Multi-Pipeline Activity: (cores:cycles)1:-nan 2:-nan 3:-nan 4:-nan 5:-nan 6:-nan 7:-nan 8:-nan 9:-nan 10:-nan 11:-nan 12:-nan 13:-nan 14:-nan 15:-nan 16:-nan 17:-nan 18:-nan 

Makefile:77: recipe for target 'run-debug' failed
