gem5 Simulator System.  http://gem5.org
gem5 is copyrighted software; use the --copyright option for details.

gem5 compiled Oct  3 2018 15:02:46
gem5 started Oct  4 2018 16:44:48
gem5 executing on octa, pid 21216
command line: gem5.opt --debug-flag=Minor /home/vidushi/ss-stack/gem5/configs/example/se.py --cpu-type=MinorCPU --ruby --num-cpus=4 --num-dirs=4 --network=simple --topology=Mesh_XY --mesh-rows=2 --cmd=main

Global frequency set at 1000000000000 ticks per second
Loading SS Config (env SBCONFIG): "/home/vidushi/ss-stack/ss-tools/configs/spu_merge_test.sbmodel"
FU_FIFO_LEN:15
IND_ROB_SIZE:8
VPORT_IN depricated, ignoring colons, switch to PORT_IN
NUMBER OF MEMORY CONTROLLERS: 8
NUMBER OF SPU CORES: 4
      0: system.cpu0: ActivateContext thread: 0
**** REAL SIMULATION ****
      0: system.cpu0: MinorCPU startup
      0: system.cpu1: MinorCPU startup
      0: system.cpu2: MinorCPU startup
      0: system.cpu3: MinorCPU startup
    500: system.cpu3.execute.lsq.storeBuffer: StoreBuffer step numUnissuedAccesses: 0
    500: system.cpu3.execute: No interrupt controller
    500: system.cpu3.execute: [tid:0] thread_interrupted?=0 isInbetweenInsts?=1
    500: system.cpu2.execute.lsq.storeBuffer: StoreBuffer step numUnissuedAccesses: 0
    500: system.cpu2.execute: No interrupt controller
    500: system.cpu2.execute: [tid:0] thread_interrupted?=0 isInbetweenInsts?=1
    500: system.cpu1.execute.lsq.storeBuffer: StoreBuffer step numUnissuedAccesses: 0
    500: system.cpu1.execute: No interrupt controller
    500: system.cpu1.execute: [tid:0] thread_interrupted?=0 isInbetweenInsts?=1
    500: system.cpu0.execute.lsq.storeBuffer: StoreBuffer step numUnissuedAccesses: 0
    500: system.cpu0.execute: No interrupt controller
    500: system.cpu0.execute: [tid:0] thread_interrupted?=0 isInbetweenInsts?=1
   1000: system.cpu0.execute.lsq.storeBuffer: StoreBuffer step numUnissuedAccesses: 0
   1000: system.cpu0.execute: No interrupt controller
   1000: system.cpu0.execute: [tid:0] thread_interrupted?=0 isInbetweenInsts?=1
   1000: system.cpu1.execute.lsq.storeBuffer: StoreBuffer step numUnissuedAccesses: 0
   1000: system.cpu1.execute: No interrupt controller
   1000: system.cpu1.execute: [tid:0] thread_interrupted?=0 isInbetweenInsts?=1
   1000: system.cpu2.execute.lsq.storeBuffer: StoreBuffer step numUnissuedAccesses: 0
   1000: system.cpu2.execute: No interrupt controller
   1000: system.cpu2.execute: [tid:0] thread_interrupted?=0 isInbetweenInsts?=1
   1000: system.cpu3.execute.lsq.storeBuffer: StoreBuffer step numUnissuedAccesses: 0
   1000: system.cpu3.execute: No interrupt controller
   1000: system.cpu3.execute: [tid:0] thread_interrupted?=0 isInbetweenInsts?=1
  71500: system.cpu0.execute.lsq.storeBuffer: StoreBuffer step numUnissuedAccesses: 0
  71500: system.cpu0.execute: No interrupt controller
  71500: system.cpu0.execute: [tid:0] thread_interrupted?=0 isInbetweenInsts?=1
  72000: system.cpu0.execute.lsq.storeBuffer: StoreBuffer step numUnissuedAccesses: 0
  72000: system.cpu0.execute: No interrupt controller
  72000: system.cpu0.execute: [tid:0] thread_interrupted?=0 isInbetweenInsts?=1
  72500: system.cpu0.execute.lsq.storeBuffer: StoreBuffer step numUnissuedAccesses: 0
  72500: system.cpu0.execute: No interrupt controller
  72500: system.cpu0.execute: [tid:0] thread_interrupted?=0 isInbetweenInsts?=1
  73000: system.cpu0.execute.lsq.storeBuffer: StoreBuffer step numUnissuedAccesses: 0
  73000: system.cpu0.execute: No interrupt controller
  73000: system.cpu0.execute: [tid:0] thread_interrupted?=0 isInbetweenInsts?=1
  73000: system.cpu0.execute: Attempting to issue [tid:0]
  73000: system.cpu0.execute:  ............... : 0/1.1/1/1.1 pc: 0x100f0 (auipc) 
  73000: system.cpu0.execute: Trying to issue inst: 0/1.1/1/1.1 pc: 0x100f0 (auipc) to FU: 0
  73000: system.cpu0.execute: Issuing inst: 0/1.1/1/1.1 pc: 0x100f0 (auipc) into FU 0
  73000: system.cpu0.execute.scoreboard0: Marking up inst: 0/1.1/1/1.1 pc: 0x100f0 (auipc) regIndex: 3 final numResults: 1 returnCycle: 149
  73000: system.cpu0.execute: Reached inst issue limit
  73000: system.cpu0.execute: Stepping to next inst inputIndex: 1
  73000: system.cpu0.execute: Wrapping
  73000: system.cpu0.execute.lsq: No matching memory response for inst: 0/1.1/1/1.1 pc: 0x100f0 (auipc)
  73500: system.cpu0.execute.lsq.storeBuffer: StoreBuffer step numUnissuedAccesses: 0
  73500: system.cpu0.execute: No interrupt controller
  73500: system.cpu0.execute: [tid:0] thread_interrupted?=0 isInbetweenInsts?=1
  73500: system.cpu0.execute: Attempting to issue [tid:0]
  73500: system.cpu0.execute:  ............... : 0/1.1/1/2.2 pc: 0x100f4 (addi) 
  73500: system.cpu0.execute: Trying to issue inst: 0/1.1/1/2.2 pc: 0x100f4 (addi) to FU: 0
  73500: system.cpu0.execute: Issuing inst: 0/1.1/1/2.2 pc: 0x100f4 (addi) into FU 0
  73500: system.cpu0.execute.scoreboard0: Marking up inst: 0/1.1/1/2.2 pc: 0x100f4 (addi) regIndex: 3 final numResults: 2 returnCycle: 150
  73500: system.cpu0.execute: Reached inst issue limit
  73500: system.cpu0.execute: Stepping to next inst inputIndex: 1
  73500: system.cpu0.execute: Wrapping
  73500: system.cpu0.execute.lsq: No matching memory response for inst: 0/1.1/1/1.1 pc: 0x100f0 (auipc)
  74000: system.cpu0.execute.lsq.storeBuffer: StoreBuffer step numUnissuedAccesses: 0
  74000: system.cpu0.execute: No interrupt controller
  74000: system.cpu0.execute: [tid:0] thread_interrupted?=0 isInbetweenInsts?=1
  74000: system.cpu0.execute: Attempting to issue [tid:0]
  74000: system.cpu0.execute:  ............... : 0/1.1/1/3.3 pc: 0x100f8 (addi) 
  74000: system.cpu0.execute: Trying to issue inst: 0/1.1/1/3.3 pc: 0x100f8 (addi) to FU: 0
  74000: system.cpu0.execute: Issuing inst: 0/1.1/1/3.3 pc: 0x100f8 (addi) into FU 0
  74000: system.cpu0.execute.scoreboard0: Marking up inst: 0/1.1/1/3.3 pc: 0x100f8 (addi) regIndex: 10 final numResults: 1 returnCycle: 151
  74000: system.cpu0.execute: Reached inst issue limit
  74000: system.cpu0.execute: Stepping to next inst inputIndex: 1
  74000: system.cpu0.execute: Wrapping
  74500: system.cpu0.execute.lsq.storeBuffer: StoreBuffer step numUnissuedAccesses: 0
  74500: system.cpu0.execute: No interrupt controller
  74500: system.cpu0.execute: [tid:0] thread_interrupted?=0 isInbetweenInsts?=1
  74500: system.cpu0.execute: Attempting to commit [tid:0]
  74500: system.cpu0.execute: Committing micro-ops for interrupt[tid:0]
  74500: system.cpu0.execute: Trying to commit canCommitInsts: 1
  74500: system.cpu0.execute: Trying to commit from FUs
  74500: global: ExecContext setting PC: (0x100f0=>0x100f4).(0=>1)
  74500: system.cpu0.execute: Committing inst: 0/1.1/1/1.1 pc: 0x100f0 (auipc)
  74500: system.cpu0.execute: Unstalling 0 for inst 0/1.1/1/1.1
  74500: system.cpu0.execute: Completed inst: 0/1.1/1/1.1 pc: 0x100f0 (auipc)
  74500: system.cpu0.execute.scoreboard0: Clearing inst: 0/1.1/1/1.1 pc: 0x100f0 (auipc) regIndex: 3 final numResults: 1
  74500: system.cpu0.execute: Trying to commit canCommitInsts: 1
  74500: system.cpu0.execute: Trying to commit from FUs
  74500: system.cpu0.execute: Attempting to issue [tid:0]
  74500: system.cpu0.execute:  ............... : 0/1.1/1/4.4 pc: 0x100fc (addi) 
  74500: system.cpu0.execute: Trying to issue inst: 0/1.1/1/4.4 pc: 0x100fc (addi) to FU: 0
  74500: system.cpu0.execute: Issuing inst: 0/1.1/1/4.4 pc: 0x100fc (addi) into FU 0
  74500: system.cpu0.execute.scoreboard0: Marking up inst: 0/1.1/1/4.4 pc: 0x100fc (addi) regIndex: 12 final numResults: 1 returnCycle: 152
  74500: system.cpu0.execute: Reached inst issue limit
  74500: system.cpu0.execute: Stepping to next inst inputIndex: 1
  74500: system.cpu0.execute: Wrapping
  75000: system.cpu0.execute.lsq.storeBuffer: StoreBuffer step numUnissuedAccesses: 0
  75000: system.cpu0.execute: No interrupt controller
  75000: system.cpu0.execute: [tid:0] thread_interrupted?=0 isInbetweenInsts?=1
  75000: system.cpu0.execute: Attempting to commit [tid:0]
  75000: system.cpu0.execute: Committing micro-ops for interrupt[tid:0]
  75000: system.cpu0.execute: Trying to commit canCommitInsts: 1
  75000: system.cpu0.execute: Trying to commit from FUs
  75000: global: ExecContext setting PC: (0x100f4=>0x100f8).(0=>1)
  75000: system.cpu0.execute: Committing inst: 0/1.1/1/2.2 pc: 0x100f4 (addi)
  75000: system.cpu0.execute: Unstalling 0 for inst 0/1.1/1/2.2
  75000: system.cpu0.execute: Completed inst: 0/1.1/1/2.2 pc: 0x100f4 (addi)
  75000: system.cpu0.execute.scoreboard0: Clearing inst: 0/1.1/1/2.2 pc: 0x100f4 (addi) regIndex: 3 final numResults: 0
  75000: system.cpu0.execute: Trying to commit canCommitInsts: 1
  75000: system.cpu0.execute: Trying to commit from FUs
  75500: system.cpu0.execute.lsq.storeBuffer: StoreBuffer step numUnissuedAccesses: 0
  75500: system.cpu0.execute: No interrupt controller
  75500: system.cpu0.execute: [tid:0] thread_interrupted?=0 isInbetweenInsts?=1
  75500: system.cpu0.execute: Attempting to commit [tid:0]
  75500: system.cpu0.execute: Committing micro-ops for interrupt[tid:0]
  75500: system.cpu0.execute: Trying to commit canCommitInsts: 1
  75500: system.cpu0.execute: Trying to commit from FUs
  75500: global: ExecContext setting PC: (0x100f8=>0x100fc).(0=>1)
  75500: system.cpu0.execute: Committing inst: 0/1.1/1/3.3 pc: 0x100f8 (addi)
  75500: system.cpu0.execute: Unstalling 0 for inst 0/1.1/1/3.3
  75500: system.cpu0.execute: Completed inst: 0/1.1/1/3.3 pc: 0x100f8 (addi)
  75500: system.cpu0.execute.scoreboard0: Clearing inst: 0/1.1/1/3.3 pc: 0x100f8 (addi) regIndex: 10 final numResults: 0
  75500: system.cpu0.execute: Trying to commit canCommitInsts: 1
  75500: system.cpu0.execute: Trying to commit from FUs
  76000: system.cpu0.execute.lsq.storeBuffer: StoreBuffer step numUnissuedAccesses: 0
  76000: system.cpu0.execute: No interrupt controller
  76000: system.cpu0.execute: [tid:0] thread_interrupted?=0 isInbetweenInsts?=1
  76000: system.cpu0.execute: Attempting to commit [tid:0]
  76000: system.cpu0.execute: Committing micro-ops for interrupt[tid:0]
  76000: system.cpu0.execute: Trying to commit canCommitInsts: 1
  76000: system.cpu0.execute: Trying to commit from FUs
  76000: global: ExecContext setting PC: (0x100fc=>0x10100).(0=>1)
  76000: system.cpu0.execute: Committing inst: 0/1.1/1/4.4 pc: 0x100fc (addi)
  76000: system.cpu0.execute: Unstalling 0 for inst 0/1.1/1/4.4
  76000: system.cpu0.execute: Completed inst: 0/1.1/1/4.4 pc: 0x100fc (addi)
  76000: system.cpu0.execute.scoreboard0: Clearing inst: 0/1.1/1/4.4 pc: 0x100fc (addi) regIndex: 12 final numResults: 0
 130500: system.cpu0.execute.lsq.storeBuffer: StoreBuffer step numUnissuedAccesses: 0
 130500: system.cpu0.execute: No interrupt controller
 130500: system.cpu0.execute: [tid:0] thread_interrupted?=0 isInbetweenInsts?=1
 131000: system.cpu0.execute.lsq.storeBuffer: StoreBuffer step numUnissuedAccesses: 0
 131000: system.cpu0.execute: No interrupt controller
 131000: system.cpu0.execute: [tid:0] thread_interrupted?=0 isInbetweenInsts?=1
 131500: system.cpu0.execute.lsq.storeBuffer: StoreBuffer step numUnissuedAccesses: 0
 131500: system.cpu0.execute: No interrupt controller
 131500: system.cpu0.execute: [tid:0] thread_interrupted?=0 isInbetweenInsts?=1
 132000: system.cpu0.execute.lsq.storeBuffer: StoreBuffer step numUnissuedAccesses: 0
 132000: system.cpu0.execute: No interrupt controller
 132000: system.cpu0.execute: [tid:0] thread_interrupted?=0 isInbetweenInsts?=1
 132000: system.cpu0.execute: Attempting to issue [tid:0]
 132000: system.cpu0.execute:  ............... : 0/1.1/2/5.5 pc: 0x10100 (c_sub) 
 132000: system.cpu0.execute: Trying to issue inst: 0/1.1/2/5.5 pc: 0x10100 (c_sub) to FU: 0
 132000: system.cpu0.execute: Issuing inst: 0/1.1/2/5.5 pc: 0x10100 (c_sub) into FU 0
 132000: system.cpu0.execute.scoreboard0: Marking up inst: 0/1.1/2/5.5 pc: 0x10100 (c_sub) regIndex: 12 final numResults: 1 returnCycle: 267
 132000: system.cpu0.execute: Reached inst issue limit
 132000: system.cpu0.execute: Stepping to next inst inputIndex: 1
 132000: system.cpu0.execute: Wrapping
 132000: system.cpu0.execute.lsq: No matching memory response for inst: 0/1.1/2/5.5 pc: 0x10100 (c_sub)
 132500: system.cpu0.execute.lsq.storeBuffer: StoreBuffer step numUnissuedAccesses: 0
 132500: system.cpu0.execute: No interrupt controller
 132500: system.cpu0.execute: [tid:0] thread_interrupted?=0 isInbetweenInsts?=1
 132500: system.cpu0.execute: Attempting to issue [tid:0]
 132500: system.cpu0.execute:  ............... : 0/1.1/2/6.6 pc: 0x10102 (c_li) 
 132500: system.cpu0.execute: Trying to issue inst: 0/1.1/2/6.6 pc: 0x10102 (c_li) to FU: 0
 132500: system.cpu0.execute: Issuing inst: 0/1.1/2/6.6 pc: 0x10102 (c_li) into FU 0
 132500: system.cpu0.execute.scoreboard0: Marking up inst: 0/1.1/2/6.6 pc: 0x10102 (c_li) regIndex: 11 final numResults: 1 returnCycle: 268
 132500: system.cpu0.execute: Reached inst issue limit
 132500: system.cpu0.execute: Stepping to next inst inputIndex: 1
 132500: system.cpu0.execute: Wrapping
 132500: system.cpu0.execute.lsq: No matching memory response for inst: 0/1.1/2/5.5 pc: 0x10100 (c_sub)
 133000: system.cpu0.execute.lsq.storeBuffer: StoreBuffer step numUnissuedAccesses: 0
 133000: system.cpu0.execute: No interrupt controller
 133000: system.cpu0.execute: [tid:0] thread_interrupted?=0 isInbetweenInsts?=1
 133000: system.cpu0.execute: Attempting to issue [tid:0]
 133000: system.cpu0.execute:  ............... : 0/1.1/2/7.7 pc: 0x10104 (jal) 
 133000: system.cpu0.execute: Trying to issue inst: 0/1.1/2/7.7 pc: 0x10104 (jal) to FU: 0
 133000: system.cpu0.execute: Issuing inst: 0/1.1/2/7.7 pc: 0x10104 (jal) into FU 0
 133000: system.cpu0.execute.scoreboard0: Marking up inst: 0/1.1/2/7.7 pc: 0x10104 (jal) regIndex: 1 final numResults: 1 returnCycle: 269
 133000: system.cpu0.execute: Reached inst issue limit
 133000: system.cpu0.execute: Stepping to next inst inputIndex: 1
 133000: system.cpu0.execute: Wrapping
 133500: system.cpu0.execute.lsq.storeBuffer: StoreBuffer step numUnissuedAccesses: 0
 133500: system.cpu0.execute: No interrupt controller
 133500: system.cpu0.execute: [tid:0] thread_interrupted?=0 isInbetweenInsts?=1
 133500: system.cpu0.execute: Attempting to commit [tid:0]
 133500: system.cpu0.execute: Committing micro-ops for interrupt[tid:0]
 133500: system.cpu0.execute: Trying to commit canCommitInsts: 1
 133500: system.cpu0.execute: Trying to commit from FUs
 133500: global: ExecContext setting PC: (0x10100=>0x10102).(0=>1)
 133500: system.cpu0.execute: Committing inst: 0/1.1/2/5.5 pc: 0x10100 (c_sub)
 133500: system.cpu0.execute: Unstalling 0 for inst 0/1.1/2/5.5
 133500: system.cpu0.execute: Completed inst: 0/1.1/2/5.5 pc: 0x10100 (c_sub)
 133500: system.cpu0.execute.scoreboard0: Clearing inst: 0/1.1/2/5.5 pc: 0x10100 (c_sub) regIndex: 12 final numResults: 0
 133500: system.cpu0.execute: Trying to commit canCommitInsts: 1
 133500: system.cpu0.execute: Trying to commit from FUs
 133500: system.cpu0.execute: Attempting to issue [tid:0]
 133500: system.cpu0.execute:  ............... : 0/1.1/2/8.8 pc: 0x10108 (auipc) 
 133500: system.cpu0.execute: Trying to issue inst: 0/1.1/2/8.8 pc: 0x10108 (auipc) to FU: 0
 133500: system.cpu0.execute: Issuing inst: 0/1.1/2/8.8 pc: 0x10108 (auipc) into FU 0
 133500: system.cpu0.execute.scoreboard0: Marking up inst: 0/1.1/2/8.8 pc: 0x10108 (auipc) regIndex: 10 final numResults: 1 returnCycle: 270
 133500: system.cpu0.execute: Reached inst issue limit
 133500: system.cpu0.execute: Stepping to next inst inputIndex: 1
 133500: system.cpu0.execute: Wrapping
 134000: system.cpu0.execute.lsq.storeBuffer: StoreBuffer step numUnissuedAccesses: 0
 134000: system.cpu0.execute: No interrupt controller
 134000: system.cpu0.execute: [tid:0] thread_interrupted?=0 isInbetweenInsts?=1
 134000: system.cpu0.execute: Attempting to commit [tid:0]
 134000: system.cpu0.execute: Committing micro-ops for interrupt[tid:0]
 134000: system.cpu0.execute: Trying to commit canCommitInsts: 1
 134000: system.cpu0.execute: Trying to commit from FUs
 134000: global: ExecContext setting PC: (0x10102=>0x10104).(0=>1)
 134000: system.cpu0.execute: Committing inst: 0/1.1/2/6.6 pc: 0x10102 (c_li)
 134000: system.cpu0.execute: Unstalling 0 for inst 0/1.1/2/6.6
 134000: system.cpu0.execute: Completed inst: 0/1.1/2/6.6 pc: 0x10102 (c_li)
 134000: system.cpu0.execute.scoreboard0: Clearing inst: 0/1.1/2/6.6 pc: 0x10102 (c_li) regIndex: 11 final numResults: 0
 134000: system.cpu0.execute: Trying to commit canCommitInsts: 1
 134000: system.cpu0.execute: Trying to commit from FUs
 134000: system.cpu0.execute: Attempting to issue [tid:0]
 134000: system.cpu0.execute:  ............... : 0/1.1/2/9.9 pc: 0x1010c (addi) 
 134000: system.cpu0.execute: Trying to issue inst: 0/1.1/2/9.9 pc: 0x1010c (addi) to FU: 0
 134000: system.cpu0.execute: Issuing inst: 0/1.1/2/9.9 pc: 0x1010c (addi) into FU 0
 134000: system.cpu0.execute.scoreboard0: Marking up inst: 0/1.1/2/9.9 pc: 0x1010c (addi) regIndex: 10 final numResults: 2 returnCycle: 271
 134000: system.cpu0.execute: Reached inst issue limit
 134000: system.cpu0.execute: Stepping to next inst inputIndex: 1
 134000: system.cpu0.execute: Wrapping
 134500: system.cpu0.execute.lsq.storeBuffer: StoreBuffer step numUnissuedAccesses: 0
 134500: system.cpu0.execute: No interrupt controller
 134500: system.cpu0.execute: [tid:0] thread_interrupted?=0 isInbetweenInsts?=1
 134500: system.cpu0.execute: Attempting to commit [tid:0]
 134500: system.cpu0.execute: Committing micro-ops for interrupt[tid:0]
 134500: system.cpu0.execute: Trying to commit canCommitInsts: 1
 134500: system.cpu0.execute: Trying to commit from FUs
 134500: global: ExecContext setting PC: (0x10104=>0x10108).(0=>1)
 134500: system.cpu0.execute: Committing inst: 0/1.1/2/7.7 pc: 0x10104 (jal)
 134500: system.cpu0.execute: Unstalling 0 for inst 0/1.1/2/7.7
 134500: system.cpu0.execute: Completed inst: 0/1.1/2/7.7 pc: 0x10104 (jal)
 134500: system.cpu0.execute.scoreboard0: Clearing inst: 0/1.1/2/7.7 pc: 0x10104 (jal) regIndex: 1 final numResults: 0
 134500: system.cpu0.execute: Attempting to issue [tid:0]
 134500: system.cpu0.execute:  ............... : 0/1.1/2/10.10 pc: 0x10110 (jal) 
 134500: system.cpu0.execute: Discarding inst: 0/1.1/2/10.10 pc: 0x10110 (jal) as its stream state was unexpected, expected: 2
 134500: system.cpu0.execute: Stepping to next inst inputIndex: 1
 134500: system.cpu0.execute: Wrapping
 135000: system.cpu0.execute.lsq.storeBuffer: StoreBuffer step numUnissuedAccesses: 0
 135000: system.cpu0.execute: No interrupt controller
 135000: system.cpu0.execute: [tid:0] thread_interrupted?=0 isInbetweenInsts?=1
 135000: system.cpu0.execute: Attempting to commit [tid:0]
 135000: system.cpu0.execute: Committing micro-ops for interrupt[tid:0]
 135000: system.cpu0.execute: Trying to commit canCommitInsts: 1
 135000: system.cpu0.execute: Trying to commit from FUs
 135000: system.cpu0.execute: Unstalling 0 for inst 0/1.1/2/8.8
 135000: system.cpu0.execute: Discarding inst: 0/1.1/2/8.8 pc: 0x10108 (auipc) as its stream state was unexpected, expected: 2
 135000: system.cpu0.execute: Completed inst: 0/1.1/2/8.8 pc: 0x10108 (auipc)
 135000: system.cpu0.execute.scoreboard0: Clearing inst: 0/1.1/2/8.8 pc: 0x10108 (auipc) regIndex: 10 final numResults: 1
 135000: system.cpu0.execute: Trying to commit canCommitInsts: 1
 135000: system.cpu0.execute: Trying to commit from FUs
 135000: system.cpu0.execute: Attempting to issue [tid:0]
 135000: system.cpu0.execute:  ............... : 0/1.1/2/11.11 pc: 0x10114 (jal) 
 135000: system.cpu0.execute: Discarding inst: 0/1.1/2/11.11 pc: 0x10114 (jal) as its stream state was unexpected, expected: 2
 135000: system.cpu0.execute: Stepping to next inst inputIndex: 1
 135000: system.cpu0.execute: Wrapping
 135500: system.cpu0.execute.lsq.storeBuffer: StoreBuffer step numUnissuedAccesses: 0
 135500: system.cpu0.execute: No interrupt controller
 135500: system.cpu0.execute: [tid:0] thread_interrupted?=0 isInbetweenInsts?=1
 135500: system.cpu0.execute: Attempting to commit [tid:0]
 135500: system.cpu0.execute: Committing micro-ops for interrupt[tid:0]
 135500: system.cpu0.execute: Trying to commit canCommitInsts: 1
 135500: system.cpu0.execute: Trying to commit from FUs
 135500: system.cpu0.execute: Unstalling 0 for inst 0/1.1/2/9.9
 135500: system.cpu0.execute: Discarding inst: 0/1.1/2/9.9 pc: 0x1010c (addi) as its stream state was unexpected, expected: 2
 135500: system.cpu0.execute: Completed inst: 0/1.1/2/9.9 pc: 0x1010c (addi)
 135500: system.cpu0.execute.scoreboard0: Clearing inst: 0/1.1/2/9.9 pc: 0x1010c (addi) regIndex: 10 final numResults: 0
 135500: system.cpu0.execute: Attempting to issue [tid:0]
 135500: system.cpu0.execute:  ............... : 0/1.1/2/12.12 pc: 0x10118 (c_lwsp) 
 135500: system.cpu0.execute: Discarding inst: 0/1.1/2/12.12 pc: 0x10118 (c_lwsp) as its stream state was unexpected, expected: 2
 135500: system.cpu0.execute: Stepping to next inst inputIndex: 1
 135500: system.cpu0.execute: Wrapping
 191500: system.cpu0.execute.lsq.storeBuffer: StoreBuffer step numUnissuedAccesses: 0
 191500: system.cpu0.execute: No interrupt controller
 191500: system.cpu0.execute: [tid:0] thread_interrupted?=0 isInbetweenInsts?=1
 192000: system.cpu0.execute.lsq.storeBuffer: StoreBuffer step numUnissuedAccesses: 0
 192000: system.cpu0.execute: No interrupt controller
 192000: system.cpu0.execute: [tid:0] thread_interrupted?=0 isInbetweenInsts?=1
 192500: system.cpu0.execute.lsq.storeBuffer: StoreBuffer step numUnissuedAccesses: 0
 192500: system.cpu0.execute: No interrupt controller
 192500: system.cpu0.execute: [tid:0] thread_interrupted?=0 isInbetweenInsts?=1
 252500: system.cpu0.execute.lsq.storeBuffer: StoreBuffer step numUnissuedAccesses: 0
 252500: system.cpu0.execute: No interrupt controller
 252500: system.cpu0.execute: [tid:0] thread_interrupted?=0 isInbetweenInsts?=1
 253000: system.cpu0.execute.lsq.storeBuffer: StoreBuffer step numUnissuedAccesses: 0
 253000: system.cpu0.execute: No interrupt controller
 253000: system.cpu0.execute: [tid:0] thread_interrupted?=0 isInbetweenInsts?=1
 253500: system.cpu0.execute.lsq.storeBuffer: StoreBuffer step numUnissuedAccesses: 0
 253500: system.cpu0.execute: No interrupt controller
 253500: system.cpu0.execute: [tid:0] thread_interrupted?=0 isInbetweenInsts?=1
 254000: system.cpu0.execute.lsq.storeBuffer: StoreBuffer step numUnissuedAccesses: 0
 254000: system.cpu0.execute: No interrupt controller
 254000: system.cpu0.execute: [tid:0] thread_interrupted?=0 isInbetweenInsts?=1
 254000: system.cpu0.execute: Attempting to issue [tid:0]
 254000: system.cpu0.execute:  ............... : 0/2.1/4/13.13 pc: 0x102aa (c_li) 
 254000: system.cpu0.execute: Trying to issue inst: 0/2.1/4/13.13 pc: 0x102aa (c_li) to FU: 0
 254000: system.cpu0.execute: Issuing inst: 0/2.1/4/13.13 pc: 0x102aa (c_li) into FU 0
 254000: system.cpu0.execute.scoreboard0: Marking up inst: 0/2.1/4/13.13 pc: 0x102aa (c_li) regIndex: 6 final numResults: 1 returnCycle: 511
 254000: system.cpu0.execute: Reached inst issue limit
 254000: system.cpu0.execute: Stepping to next inst inputIndex: 1
 254000: system.cpu0.execute: Wrapping
 254000: system.cpu0.execute.lsq: No matching memory response for inst: 0/2.1/4/13.13 pc: 0x102aa (c_li)
 254500: system.cpu0.execute.lsq.storeBuffer: StoreBuffer step numUnissuedAccesses: 0
 254500: system.cpu0.execute: No interrupt controller
 254500: system.cpu0.execute: [tid:0] thread_interrupted?=0 isInbetweenInsts?=1
 254500: system.cpu0.execute: Attempting to issue [tid:0]
 254500: system.cpu0.execute:  ............... : 0/2.1/4/14.14 pc: 0x102ac (c_mv) 
 254500: system.cpu0.execute: Trying to issue inst: 0/2.1/4/14.14 pc: 0x102ac (c_mv) to FU: 0
 254500: system.cpu0.execute: Issuing inst: 0/2.1/4/14.14 pc: 0x102ac (c_mv) into FU 0
 254500: system.cpu0.execute.scoreboard0: Marking up inst: 0/2.1/4/14.14 pc: 0x102ac (c_mv) regIndex: 14 final numResults: 1 returnCycle: 512
 254500: system.cpu0.execute: Reached inst issue limit
 254500: system.cpu0.execute: Stepping to next inst inputIndex: 1
 254500: system.cpu0.execute: Wrapping
 254500: system.cpu0.execute.lsq: No matching memory response for inst: 0/2.1/4/13.13 pc: 0x102aa (c_li)
 255000: system.cpu0.execute.lsq.storeBuffer: StoreBuffer step numUnissuedAccesses: 0
 255000: system.cpu0.execute: No interrupt controller
 255000: system.cpu0.execute: [tid:0] thread_interrupted?=0 isInbetweenInsts?=1
 255000: system.cpu0.execute: Attempting to issue [tid:0]
 255000: system.cpu0.execute:  ............... : 0/2.1/4/15.15 pc: 0x102ae (bgeu) 
 255000: system.cpu0.execute: Trying to issue inst: 0/2.1/4/15.15 pc: 0x102ae (bgeu) to FU: 0
 255000: system.cpu0.execute: Issuing inst: 0/2.1/4/15.15 pc: 0x102ae (bgeu) into FU 0
 255000: system.cpu0.execute: Reached inst issue limit
 255000: system.cpu0.execute: Stepping to next inst inputIndex: 1
 255000: system.cpu0.execute: Wrapping
 255500: system.cpu0.execute.lsq.storeBuffer: StoreBuffer step numUnissuedAccesses: 0
 255500: system.cpu0.execute: No interrupt controller
 255500: system.cpu0.execute: [tid:0] thread_interrupted?=0 isInbetweenInsts?=1
 255500: system.cpu0.execute: Attempting to commit [tid:0]
 255500: system.cpu0.execute: Committing micro-ops for interrupt[tid:0]
 255500: system.cpu0.execute: Trying to commit canCommitInsts: 1
 255500: system.cpu0.execute: Trying to commit from FUs
 255500: global: ExecContext setting PC: (0x102aa=>0x102ac).(0=>1)
 255500: system.cpu0.execute: Committing inst: 0/2.1/4/13.13 pc: 0x102aa (c_li)
 255500: system.cpu0.execute: Unstalling 0 for inst 0/2.1/4/13.13
 255500: system.cpu0.execute: Completed inst: 0/2.1/4/13.13 pc: 0x102aa (c_li)
 255500: system.cpu0.execute.scoreboard0: Clearing inst: 0/2.1/4/13.13 pc: 0x102aa (c_li) regIndex: 6 final numResults: 0
 255500: system.cpu0.execute: Trying to commit canCommitInsts: 1
 255500: system.cpu0.execute: Trying to commit from FUs
 255500: system.cpu0.execute: Attempting to issue [tid:0]
 255500: system.cpu0.execute:  ............... : 0/2.1/4/16.16 pc: 0x102b2 (andi) 
 255500: system.cpu0.execute: Trying to issue inst: 0/2.1/4/16.16 pc: 0x102b2 (andi) to FU: 0
 255500: system.cpu0.execute: Issuing inst: 0/2.1/4/16.16 pc: 0x102b2 (andi) into FU 0
 255500: system.cpu0.execute.scoreboard0: Marking up inst: 0/2.1/4/16.16 pc: 0x102b2 (andi) regIndex: 15 final numResults: 1 returnCycle: 514
 255500: system.cpu0.execute: Reached inst issue limit
 255500: system.cpu0.execute: Stepping to next inst inputIndex: 1
 255500: system.cpu0.execute: Wrapping
 256000: system.cpu0.execute.lsq.storeBuffer: StoreBuffer step numUnissuedAccesses: 0
 256000: system.cpu0.execute: No interrupt controller
 256000: system.cpu0.execute: [tid:0] thread_interrupted?=0 isInbetweenInsts?=1
 256000: system.cpu0.execute: Attempting to commit [tid:0]
 256000: system.cpu0.execute: Committing micro-ops for interrupt[tid:0]
 256000: system.cpu0.execute: Trying to commit canCommitInsts: 1
 256000: system.cpu0.execute: Trying to commit from FUs
 256000: global: ExecContext setting PC: (0x102ac=>0x102ae).(0=>1)
 256000: system.cpu0.execute: Committing inst: 0/2.1/4/14.14 pc: 0x102ac (c_mv)
 256000: system.cpu0.execute: Unstalling 0 for inst 0/2.1/4/14.14
 256000: system.cpu0.execute: Completed inst: 0/2.1/4/14.14 pc: 0x102ac (c_mv)
 256000: system.cpu0.execute.scoreboard0: Clearing inst: 0/2.1/4/14.14 pc: 0x102ac (c_mv) regIndex: 14 final numResults: 0
 256000: system.cpu0.execute: Trying to commit canCommitInsts: 1
 256000: system.cpu0.execute: Trying to commit from FUs
 256000: system.cpu0.execute: Attempting to issue [tid:0]
 256000: system.cpu0.execute:  ............... : 0/2.1/4/17.17 pc: 0x102b6 (c_bnez) 
 256000: system.cpu0.execute: Trying to issue inst: 0/2.1/4/17.17 pc: 0x102b6 (c_bnez) to FU: 0
 256000: system.cpu0.execute: Issuing inst: 0/2.1/4/17.17 pc: 0x102b6 (c_bnez) into FU 0
 256000: system.cpu0.execute: Reached inst issue limit
 256000: system.cpu0.execute: Stepping to next inst inputIndex: 1
 256000: system.cpu0.execute: Wrapping
 256500: system.cpu0.execute.lsq.storeBuffer: StoreBuffer step numUnissuedAccesses: 0
 256500: system.cpu0.execute: No interrupt controller
 256500: system.cpu0.execute: [tid:0] thread_interrupted?=0 isInbetweenInsts?=1
 256500: system.cpu0.execute: Attempting to commit [tid:0]
 256500: system.cpu0.execute: Committing micro-ops for interrupt[tid:0]
 256500: system.cpu0.execute: Trying to commit canCommitInsts: 1
 256500: system.cpu0.execute: Trying to commit from FUs
 256500: global: ExecContext setting PC: (0x102ae=>0x102b2).(0=>1)
 256500: system.cpu0.execute: Committing inst: 0/2.1/4/15.15 pc: 0x102ae (bgeu)
 256500: system.cpu0.execute: Unstalling 0 for inst 0/2.1/4/15.15
 256500: system.cpu0.execute: Completed inst: 0/2.1/4/15.15 pc: 0x102ae (bgeu)
 256500: system.cpu0.execute: Trying to commit canCommitInsts: 1
 256500: system.cpu0.execute: Trying to commit from FUs
 256500: system.cpu0.execute: Attempting to issue [tid:0]
 256500: system.cpu0.execute:  ............... : 0/2.1/4/18.18 pc: 0x102b8 (c_bnez) 
 256500: system.cpu0.execute: Trying to issue inst: 0/2.1/4/18.18 pc: 0x102b8 (c_bnez) to FU: 0
 256500: system.cpu0.execute: Issuing inst: 0/2.1/4/18.18 pc: 0x102b8 (c_bnez) into FU 0
 256500: system.cpu0.execute: Reached inst issue limit
 256500: system.cpu0.execute: Stepping to next inst inputIndex: 1
 256500: system.cpu0.execute: Wrapping
 257000: system.cpu0.execute.lsq.storeBuffer: StoreBuffer step numUnissuedAccesses: 0
 257000: system.cpu0.execute: No interrupt controller
 257000: system.cpu0.execute: [tid:0] thread_interrupted?=0 isInbetweenInsts?=1
 257000: system.cpu0.execute: Attempting to commit [tid:0]
 257000: system.cpu0.execute: Committing micro-ops for interrupt[tid:0]
 257000: system.cpu0.execute: Trying to commit canCommitInsts: 1
 257000: system.cpu0.execute: Trying to commit from FUs
 257000: global: ExecContext setting PC: (0x102b2=>0x102b6).(0=>1)
 257000: system.cpu0.execute: Committing inst: 0/2.1/4/16.16 pc: 0x102b2 (andi)
 257000: system.cpu0.execute: Unstalling 0 for inst 0/2.1/4/16.16
 257000: system.cpu0.execute: Completed inst: 0/2.1/4/16.16 pc: 0x102b2 (andi)
 257000: system.cpu0.execute.scoreboard0: Clearing inst: 0/2.1/4/16.16 pc: 0x102b2 (andi) regIndex: 15 final numResults: 0
 257000: system.cpu0.execute: Trying to commit canCommitInsts: 1
 257000: system.cpu0.execute: Trying to commit from FUs
 257000: system.cpu0.execute: Attempting to issue [tid:0]
 257000: system.cpu0.execute:  ............... : 0/2.1/4/19.19 pc: 0x102ba (andi) 
 257000: system.cpu0.execute: Trying to issue inst: 0/2.1/4/19.19 pc: 0x102ba (andi) to FU: 0
 257000: system.cpu0.execute: Issuing inst: 0/2.1/4/19.19 pc: 0x102ba (andi) into FU 0
 257000: system.cpu0.execute.scoreboard0: Marking up inst: 0/2.1/4/19.19 pc: 0x102ba (andi) regIndex: 13 final numResults: 1 returnCycle: 517
 257000: system.cpu0.execute: Reached inst issue limit
 257000: system.cpu0.execute: Stepping to next inst inputIndex: 1
 257000: system.cpu0.execute: Wrapping
 257500: system.cpu0.execute.lsq.storeBuffer: StoreBuffer step numUnissuedAccesses: 0
 257500: system.cpu0.execute: No interrupt controller
 257500: system.cpu0.execute: [tid:0] thread_interrupted?=0 isInbetweenInsts?=1
 257500: system.cpu0.execute: Attempting to commit [tid:0]
 257500: system.cpu0.execute: Committing micro-ops for interrupt[tid:0]
 257500: system.cpu0.execute: Trying to commit canCommitInsts: 1
 257500: system.cpu0.execute: Trying to commit from FUs
 257500: global: ExecContext setting PC: (0x102b6=>0x102b8).(0=>1)
 257500: system.cpu0.execute: Committing inst: 0/2.1/4/17.17 pc: 0x102b6 (c_bnez)
 257500: system.cpu0.execute: Unstalling 0 for inst 0/2.1/4/17.17
 257500: system.cpu0.execute: Completed inst: 0/2.1/4/17.17 pc: 0x102b6 (c_bnez)
 257500: system.cpu0.execute: Trying to commit canCommitInsts: 1
 257500: system.cpu0.execute: Trying to commit from FUs
 257500: system.cpu0.execute: Attempting to issue [tid:0]
 257500: system.cpu0.execute:  ............... : 0/2.1/4/20.20 pc: 0x102be (c_andi) 
 257500: system.cpu0.execute: Trying to issue inst: 0/2.1/4/20.20 pc: 0x102be (c_andi) to FU: 0
 257500: system.cpu0.execute: Issuing inst: 0/2.1/4/20.20 pc: 0x102be (c_andi) into FU 0
 257500: system.cpu0.execute.scoreboard0: Marking up inst: 0/2.1/4/20.20 pc: 0x102be (c_andi) regIndex: 12 final numResults: 1 returnCycle: 518
 257500: system.cpu0.execute: Reached inst issue limit
 257500: system.cpu0.execute: Stepping to next inst inputIndex: 1
 257500: system.cpu0.execute: Wrapping
 258000: system.cpu0.execute.lsq.storeBuffer: StoreBuffer step numUnissuedAccesses: 0
 258000: system.cpu0.execute: No interrupt controller
 258000: system.cpu0.execute: [tid:0] thread_interrupted?=0 isInbetweenInsts?=1
 258000: system.cpu0.execute: Attempting to commit [tid:0]
 258000: system.cpu0.execute: Committing micro-ops for interrupt[tid:0]
 258000: system.cpu0.execute: Trying to commit canCommitInsts: 1
 258000: system.cpu0.execute: Trying to commit from FUs
 258000: global: ExecContext setting PC: (0x102b8=>0x102ba).(0=>1)
 258000: system.cpu0.execute: Committing inst: 0/2.1/4/18.18 pc: 0x102b8 (c_bnez)
 258000: system.cpu0.execute: Unstalling 0 for inst 0/2.1/4/18.18
 258000: system.cpu0.execute: Completed inst: 0/2.1/4/18.18 pc: 0x102b8 (c_bnez)
 258000: system.cpu0.execute: Trying to commit canCommitInsts: 1
 258000: system.cpu0.execute: Trying to commit from FUs
 258500: system.cpu0.execute.lsq.storeBuffer: StoreBuffer step numUnissuedAccesses: 0
 258500: system.cpu0.execute: No interrupt controller
 258500: system.cpu0.execute: [tid:0] thread_interrupted?=0 isInbetweenInsts?=1
 258500: system.cpu0.execute: Attempting to commit [tid:0]
 258500: system.cpu0.execute: Committing micro-ops for interrupt[tid:0]
 258500: system.cpu0.execute: Trying to commit canCommitInsts: 1
 258500: system.cpu0.execute: Trying to commit from FUs
 258500: global: ExecContext setting PC: (0x102ba=>0x102be).(0=>1)
 258500: system.cpu0.execute: Committing inst: 0/2.1/4/19.19 pc: 0x102ba (andi)
 258500: system.cpu0.execute: Unstalling 0 for inst 0/2.1/4/19.19
 258500: system.cpu0.execute: Completed inst: 0/2.1/4/19.19 pc: 0x102ba (andi)
 258500: system.cpu0.execute.scoreboard0: Clearing inst: 0/2.1/4/19.19 pc: 0x102ba (andi) regIndex: 13 final numResults: 0
 258500: system.cpu0.execute: Trying to commit canCommitInsts: 1
 258500: system.cpu0.execute: Trying to commit from FUs
 259000: system.cpu0.execute.lsq.storeBuffer: StoreBuffer step numUnissuedAccesses: 0
 259000: system.cpu0.execute: No interrupt controller
 259000: system.cpu0.execute: [tid:0] thread_interrupted?=0 isInbetweenInsts?=1
 259000: system.cpu0.execute: Attempting to commit [tid:0]
 259000: system.cpu0.execute: Committing micro-ops for interrupt[tid:0]
 259000: system.cpu0.execute: Trying to commit canCommitInsts: 1
 259000: system.cpu0.execute: Trying to commit from FUs
 259000: global: ExecContext setting PC: (0x102be=>0x102c0).(0=>1)
 259000: system.cpu0.execute: Committing inst: 0/2.1/4/20.20 pc: 0x102be (c_andi)
 259000: system.cpu0.execute: Unstalling 0 for inst 0/2.1/4/20.20
 259000: system.cpu0.execute: Completed inst: 0/2.1/4/20.20 pc: 0x102be (c_andi)
 259000: system.cpu0.execute.scoreboard0: Clearing inst: 0/2.1/4/20.20 pc: 0x102be (c_andi) regIndex: 12 final numResults: 0
 308000: system.cpu0.execute.lsq.storeBuffer: StoreBuffer step numUnissuedAccesses: 0
 308000: system.cpu0.execute: No interrupt controller
 308000: system.cpu0.execute: [tid:0] thread_interrupted?=0 isInbetweenInsts?=1
 308500: system.cpu0.execute.lsq.storeBuffer: StoreBuffer step numUnissuedAccesses: 0
 308500: system.cpu0.execute: No interrupt controller
 308500: system.cpu0.execute: [tid:0] thread_interrupted?=0 isInbetweenInsts?=1
 309000: system.cpu0.execute.lsq.storeBuffer: StoreBuffer step numUnissuedAccesses: 0
 309000: system.cpu0.execute: No interrupt controller
 309000: system.cpu0.execute: [tid:0] thread_interrupted?=0 isInbetweenInsts?=1
 309500: system.cpu0.execute.lsq.storeBuffer: StoreBuffer step numUnissuedAccesses: 0
 309500: system.cpu0.execute: No interrupt controller
 309500: system.cpu0.execute: [tid:0] thread_interrupted?=0 isInbetweenInsts?=1
 309500: system.cpu0.execute: Attempting to issue [tid:0]
 309500: system.cpu0.execute:  ............... : 0/2.1/5/21.21 pc: 0x102c0 (c_add) 
 309500: system.cpu0.execute: Trying to issue inst: 0/2.1/5/21.21 pc: 0x102c0 (c_add) to FU: 0
 309500: system.cpu0.execute: Issuing inst: 0/2.1/5/21.21 pc: 0x102c0 (c_add) into FU 0
 309500: system.cpu0.execute.scoreboard0: Marking up inst: 0/2.1/5/21.21 pc: 0x102c0 (c_add) regIndex: 13 final numResults: 1 returnCycle: 622
 309500: system.cpu0.execute: Reached inst issue limit
 309500: system.cpu0.execute: Stepping to next inst inputIndex: 1
 309500: system.cpu0.execute: Wrapping
 309500: system.cpu0.execute.lsq: No matching memory response for inst: 0/2.1/5/21.21 pc: 0x102c0 (c_add)
 310000: system.cpu0.execute.lsq.storeBuffer: StoreBuffer step numUnissuedAccesses: 0
 310000: system.cpu0.execute: No interrupt controller
 310000: system.cpu0.execute: [tid:0] thread_interrupted?=0 isInbetweenInsts?=1
 310000: system.cpu0.execute: Attempting to issue [tid:0]
 310000: system.cpu0.execute:  ............... : 0/2.1/5/22.22 pc: 0x102c2 (c_sd) 
 310000: system.cpu0.execute: Trying to issue inst: 0/2.1/5/22.22 pc: 0x102c2 (c_sd) to FU: 0
 310000: system.cpu0.execute: Can't issue as FU: 0 isn't capable
 310000: system.cpu0.execute: Trying to issue inst: 0/2.1/5/22.22 pc: 0x102c2 (c_sd) to FU: 1
 310000: system.cpu0.execute: Can't issue as FU: 1 isn't capable
 310000: system.cpu0.execute: Trying to issue inst: 0/2.1/5/22.22 pc: 0x102c2 (c_sd) to FU: 2
 310000: system.cpu0.execute: Can't issue as FU: 2 isn't capable
 310000: system.cpu0.execute: Trying to issue inst: 0/2.1/5/22.22 pc: 0x102c2 (c_sd) to FU: 3
 310000: system.cpu0.execute: Can't issue as FU: 3 isn't capable
 310000: system.cpu0.execute: Trying to issue inst: 0/2.1/5/22.22 pc: 0x102c2 (c_sd) to FU: 4
 310000: system.cpu0.execute: Can't issue as FU: 4 isn't capable
 310000: system.cpu0.execute: Trying to issue inst: 0/2.1/5/22.22 pc: 0x102c2 (c_sd) to FU: 5
 310000: system.cpu0.execute: Issuing inst: 0/2.1/5/22.22 pc: 0x102c2 (c_sd) into FU 5
 310000: system.cpu0.execute.scoreboard0: Inst: 0/2.1/5/22.22 pc: 0x102c2 (c_sd) depends on execSeqNum: 0
 310000: system.cpu0.execute: Memory ref inst: 0/2.1/5/22.22 pc: 0x102c2 (c_sd) must wait for inst 0(exec) before issuing
 310000: system.cpu0.execute: Pushing mem inst: 0/2.1/5/22.22 pc: 0x102c2 (c_sd)
 310000: system.cpu0.execute: Reached inst issue limit
 310000: system.cpu0.execute: Stepping to next inst inputIndex: 1
 310000: system.cpu0.execute: Wrapping
 310000: system.cpu0.execute.lsq: No matching memory response for inst: 0/2.1/5/21.21 pc: 0x102c0 (c_add)
 310500: system.cpu0.execute.lsq.storeBuffer: StoreBuffer step numUnissuedAccesses: 0
 310500: system.cpu0.execute: No interrupt controller
 310500: system.cpu0.execute: [tid:0] thread_interrupted?=0 isInbetweenInsts?=1
 310500: system.cpu0.execute: Attempting to commit [tid:0]
 310500: system.cpu0.execute: Committing micro-ops for interrupt[tid:0]
 310500: system.cpu0.execute: Trying to commit canCommitInsts: 1
 310500: system.cpu0.execute: Trying to commit from mem FUs
 310500: system.cpu0.execute: Issuing mem ref early inst: 0/2.1/5/22.22 pc: 0x102c2 (c_sd) instToWaitFor: 0
 310500: global: ExecContext setting PC: (0x102c2=>0x102c4).(0=>1)
 310500: system.cpu0.execute: Initiating memRef inst: 0/2.1/5/22.22 pc: 0x102c2 (c_sd)
 310500: system.cpu0.execute.lsq: Pushing request (store) addr: 0x11c80 size: 8 flags: 0x0 lineWidth : 0x40
 310500: system.cpu0.execute.lsq: Setting state from NotIssued to InTranslation for request: 0/2.1/5/22.22 pc: 0x102c2 (c_sd)
 310500: system.cpu0.execute.lsq: Submitting DTLB request
 310500: system.cpu0.execute.lsq: Received translation response for request: 0/2.1/5/22.22 pc: 0x102c2 (c_sd)
 310500: system.cpu0.execute.lsq: Setting state from InTranslation to Translated for request: 0/2.1/5/22.22 pc: 0x102c2 (c_sd)
 310500: system.cpu0.execute.lsq: Setting state from Translated to StoreToStoreBuffer for request: 0/2.1/5/22.22 pc: 0x102c2 (c_sd)
 310500: system.cpu0.execute.lsq: Moving store into transfers queue
 310500: system.cpu0.execute: Unstalling 5 for inst 0/2.1/5/22.22
 310500: system.cpu0.execute: Trying to commit canCommitInsts: 1
 310500: system.cpu0.execute: Trying to commit from FUs
 310500: system.cpu0.execute: Attempting to issue [tid:0]
 310500: system.cpu0.execute:  ............... : 0/2.1/5/23.23 pc: 0x102c4 (c_sd) 
 310500: system.cpu0.execute: Trying to issue inst: 0/2.1/5/23.23 pc: 0x102c4 (c_sd) to FU: 0
 310500: system.cpu0.execute: Can't issue as FU: 0 isn't capable
 310500: system.cpu0.execute: Trying to issue inst: 0/2.1/5/23.23 pc: 0x102c4 (c_sd) to FU: 1
 310500: system.cpu0.execute: Can't issue as FU: 1 isn't capable
 310500: system.cpu0.execute: Trying to issue inst: 0/2.1/5/23.23 pc: 0x102c4 (c_sd) to FU: 2
 310500: system.cpu0.execute: Can't issue as FU: 2 isn't capable
 310500: system.cpu0.execute: Trying to issue inst: 0/2.1/5/23.23 pc: 0x102c4 (c_sd) to FU: 3
 310500: system.cpu0.execute: Can't issue as FU: 3 isn't capable
 310500: system.cpu0.execute: Trying to issue inst: 0/2.1/5/23.23 pc: 0x102c4 (c_sd) to FU: 4
 310500: system.cpu0.execute: Can't issue as FU: 4 isn't capable
 310500: system.cpu0.execute: Trying to issue inst: 0/2.1/5/23.23 pc: 0x102c4 (c_sd) to FU: 5
 310500: system.cpu0.execute: Issuing inst: 0/2.1/5/23.23 pc: 0x102c4 (c_sd) into FU 5
 310500: system.cpu0.execute.scoreboard0: Inst: 0/2.1/5/23.23 pc: 0x102c4 (c_sd) depends on execSeqNum: 0
 310500: system.cpu0.execute: Memory ref inst: 0/2.1/5/23.23 pc: 0x102c4 (c_sd) must wait for inst 0(exec) before issuing
 310500: system.cpu0.execute: Pushing mem inst: 0/2.1/5/23.23 pc: 0x102c4 (c_sd)
 310500: system.cpu0.execute: Reached inst issue limit
 310500: system.cpu0.execute: Stepping to next inst inputIndex: 1
 310500: system.cpu0.execute: Wrapping
 311000: system.cpu0.execute.lsq.storeBuffer: StoreBuffer step numUnissuedAccesses: 0
 311000: system.cpu0.execute: No interrupt controller
 311000: system.cpu0.execute: [tid:0] thread_interrupted?=0 isInbetweenInsts?=1
 311000: system.cpu0.execute: Attempting to commit [tid:0]
 311000: system.cpu0.execute: Committing micro-ops for interrupt[tid:0]
 311000: system.cpu0.execute: Trying to commit canCommitInsts: 1
 311000: system.cpu0.execute: Trying to commit from mem FUs
 311000: system.cpu0.execute: Issuing mem ref early inst: 0/2.1/5/23.23 pc: 0x102c4 (c_sd) instToWaitFor: 0
 311000: global: ExecContext setting PC: (0x102c4=>0x102c6).(0=>1)
 311000: system.cpu0.execute: Initiating memRef inst: 0/2.1/5/23.23 pc: 0x102c4 (c_sd)
 311000: system.cpu0.execute.lsq: Pushing request (store) addr: 0x11c88 size: 8 flags: 0x0 lineWidth : 0x40
 311000: system.cpu0.execute.lsq: Setting state from NotIssued to InTranslation for request: 0/2.1/5/23.23 pc: 0x102c4 (c_sd)
 311000: system.cpu0.execute.lsq: Submitting DTLB request
 311000: system.cpu0.execute.lsq: Received translation response for request: 0/2.1/5/23.23 pc: 0x102c4 (c_sd)
 311000: system.cpu0.execute.lsq: Setting state from InTranslation to Translated for request: 0/2.1/5/23.23 pc: 0x102c4 (c_sd)
 311000: system.cpu0.execute.lsq: Setting state from Translated to StoreToStoreBuffer for request: 0/2.1/5/23.23 pc: 0x102c4 (c_sd)
 311000: system.cpu0.execute.lsq: Moving store into transfers queue
 311000: system.cpu0.execute: Unstalling 5 for inst 0/2.1/5/23.23
 311000: system.cpu0.execute: Trying to commit canCommitInsts: 1
 311000: system.cpu0.execute: Trying to commit from FUs
 311000: global: ExecContext setting PC: (0x102c0=>0x102c2).(0=>1)
 311000: system.cpu0.execute: Committing inst: 0/2.1/5/21.21 pc: 0x102c0 (c_add)
 311000: system.cpu0.execute: Unstalling 0 for inst 0/2.1/5/21.21
 311000: system.cpu0.execute: Completed inst: 0/2.1/5/21.21 pc: 0x102c0 (c_add)
 311000: system.cpu0.execute.scoreboard0: Clearing inst: 0/2.1/5/21.21 pc: 0x102c0 (c_add) regIndex: 13 final numResults: 0
 311000: system.cpu0.execute.lsq: Found matching memory response for inst: 0/2.1/5/22.22 pc: 0x102c2 (c_sd)
 311000: system.cpu0.execute: Trying to commit canCommitInsts: 1
 311000: system.cpu0.execute: Trying to commit mem response: 0/2.1/5/22.22 pc: 0x102c2 (c_sd)
 311000: global: ExecContext setting PC: (0x102c2=>0x102c4).(0=>1)
 311000: system.cpu0.execute: Memory response inst: 0/2.1/5/22.22 pc: 0x102c2 (c_sd) addr: 0x1c80 size: 8
 311000: system.cpu0.execute.lsq: Sending store: 0/2.1/5/22.22 pc: 0x102c2 (c_sd) to store buffer
 311000: system.cpu0.execute.lsq.storeBuffer: Pushing store: 0x9e6ff80 into store buffer
 311000: system.cpu0.execute.lsq: Setting state from StoreToStoreBuffer to StoreInStoreBuffer for request: 0/2.1/5/22.22 pc: 0x102c2 (c_sd)
 311000: system.cpu0.execute: Completed inst: 0/2.1/5/22.22 pc: 0x102c2 (c_sd)
 311000: system.cpu0.execute: Reached inst commit limit
 311000: system.cpu0.execute: Reached mem ref commit limit
 311000: system.cpu0.execute: Attempting to issue [tid:0]
 311000: system.cpu0.execute:  ............... : 0/2.1/5/24.24 pc: 0x102c6 (c_addi) 
 311000: system.cpu0.execute: Trying to issue inst: 0/2.1/5/24.24 pc: 0x102c6 (c_addi) to FU: 0
 311000: system.cpu0.execute: Issuing inst: 0/2.1/5/24.24 pc: 0x102c6 (c_addi) into FU 0
 311000: system.cpu0.execute.scoreboard0: Marking up inst: 0/2.1/5/24.24 pc: 0x102c6 (c_addi) regIndex: 14 final numResults: 1 returnCycle: 625
 311000: system.cpu0.execute: Reached inst issue limit
 311000: system.cpu0.execute: Stepping to next inst inputIndex: 1
 311000: system.cpu0.execute: Wrapping
 311000: system.cpu0.execute.lsq: Found matching memory response for inst: 0/2.1/5/23.23 pc: 0x102c4 (c_sd)
 311500: system.cpu0.execute.lsq.storeBuffer: StoreBuffer step numUnissuedAccesses: 1
 311500: system.cpu0.execute.lsq.storeBuffer: Considering request: 0/2.1/5/22.22 pc: 0x102c2 (c_sd), sentAllPackets: 0 state: StoreInStoreBuffer
 311500: system.cpu0.execute.lsq.storeBuffer: Trying to send request: 0/2.1/5/22.22 pc: 0x102c2 (c_sd) to memory system
 311500: system.cpu0.execute.lsq: Trying to send request: 0/2.1/5/22.22 pc: 0x102c2 (c_sd) addr: 0x11c80
 311500: system.cpu0.execute.lsq: Sent data memory request
 311500: system.cpu0.execute.lsq: Setting state from StoreInStoreBuffer to StoreBufferIssuing for request: 0/2.1/5/22.22 pc: 0x102c2 (c_sd)
 311500: system.cpu0.execute: No interrupt controller
 311500: system.cpu0.execute: [tid:0] thread_interrupted?=0 isInbetweenInsts?=1
 311500: system.cpu0.execute.lsq: Found matching memory response for inst: 0/2.1/5/23.23 pc: 0x102c4 (c_sd)
 311500: system.cpu0.execute: Attempting to commit [tid:0]
 311500: system.cpu0.execute: Committing micro-ops for interrupt[tid:0]
 311500: system.cpu0.execute.lsq: Found matching memory response for inst: 0/2.1/5/23.23 pc: 0x102c4 (c_sd)
 311500: system.cpu0.execute: Trying to commit canCommitInsts: 1
 311500: system.cpu0.execute: Trying to commit mem response: 0/2.1/5/23.23 pc: 0x102c4 (c_sd)
 311500: global: ExecContext setting PC: (0x102c4=>0x102c6).(0=>1)
 311500: system.cpu0.execute: Memory response inst: 0/2.1/5/23.23 pc: 0x102c4 (c_sd) addr: 0x1c88 size: 8
 311500: system.cpu0.execute.lsq: Sending store: 0/2.1/5/23.23 pc: 0x102c4 (c_sd) to store buffer
 311500: system.cpu0.execute.lsq.storeBuffer: Pushing store: 0x9e6fe80 into store buffer
 311500: system.cpu0.execute.lsq: Setting state from StoreToStoreBuffer to StoreInStoreBuffer for request: 0/2.1/5/23.23 pc: 0x102c4 (c_sd)
 311500: system.cpu0.execute: Completed inst: 0/2.1/5/23.23 pc: 0x102c4 (c_sd)
 311500: system.cpu0.execute: Reached mem ref commit limit
 311500: system.cpu0.execute: Trying to commit canCommitInsts: 1
 311500: system.cpu0.execute: Trying to commit from FUs
 311500: system.cpu0.execute: Attempting to issue [tid:0]
 311500: system.cpu0.execute:  ............... : 0/2.1/5/25.25 pc: 0x102c8 (bltu) 
 311500: system.cpu0.execute: Trying to issue inst: 0/2.1/5/25.25 pc: 0x102c8 (bltu) to FU: 0
 311500: system.cpu0.execute: Issuing inst: 0/2.1/5/25.25 pc: 0x102c8 (bltu) into FU 0
 311500: system.cpu0.execute: Reached inst issue limit
 311500: system.cpu0.execute: Stepping to next inst inputIndex: 1
 311500: system.cpu0.execute: Wrapping
 311500: system.cpu0.execute.lsq: No matching memory response for inst: 0/2.1/5/24.24 pc: 0x102c6 (c_addi)
 312000: system.cpu0.execute.lsq.storeBuffer: StoreBuffer step numUnissuedAccesses: 1
 312000: system.cpu0.execute.lsq.storeBuffer: Considering request: 0/2.1/5/22.22 pc: 0x102c2 (c_sd), sentAllPackets: 1 state: StoreBufferIssuing
 312000: system.cpu0.execute.lsq.storeBuffer: Considering request: 0/2.1/5/23.23 pc: 0x102c4 (c_sd), sentAllPackets: 0 state: StoreInStoreBuffer
 312000: system.cpu0.execute.lsq.storeBuffer: Trying to send request: 0/2.1/5/23.23 pc: 0x102c4 (c_sd) to memory system
 312000: system.cpu0.execute.lsq: Trying to send request: 0/2.1/5/23.23 pc: 0x102c4 (c_sd) addr: 0x11c88
 312000: system.cpu0.execute.lsq: Sending data memory request - needs retry
 312000: system.cpu0.execute.lsq: Setting state from StoreInStoreBuffer to StoreBufferNeedsRetry for request: 0/2.1/5/23.23 pc: 0x102c4 (c_sd)
 312000: system.cpu0.execute: No interrupt controller
 312000: system.cpu0.execute: [tid:0] thread_interrupted?=0 isInbetweenInsts?=1
 312000: system.cpu0.execute: Attempting to issue [tid:0]
 312000: system.cpu0.execute:  ............... : 0/2.1/5/26.26 pc: 0x102cc (c_bnez) 
 312000: system.cpu0.execute: Trying to issue inst: 0/2.1/5/26.26 pc: 0x102cc (c_bnez) to FU: 0
 312000: system.cpu0.execute: Issuing inst: 0/2.1/5/26.26 pc: 0x102cc (c_bnez) into FU 0
 312000: system.cpu0.execute: Reached inst issue limit
 312000: system.cpu0.execute: Stepping to next inst inputIndex: 1
 312000: system.cpu0.execute: Wrapping
 312500: system.cpu0.execute.lsq.storeBuffer: StoreBuffer step numUnissuedAccesses: 1
 312500: system.cpu0.execute: No interrupt controller
 312500: system.cpu0.execute: [tid:0] thread_interrupted?=0 isInbetweenInsts?=1
 312500: system.cpu0.execute: Attempting to commit [tid:0]
 312500: system.cpu0.execute: Committing micro-ops for interrupt[tid:0]
 312500: system.cpu0.execute: Trying to commit canCommitInsts: 1
 312500: system.cpu0.execute: Trying to commit from FUs
 312500: global: ExecContext setting PC: (0x102c6=>0x102c8).(0=>1)
 312500: system.cpu0.execute: Committing inst: 0/2.1/5/24.24 pc: 0x102c6 (c_addi)
 312500: system.cpu0.execute: Unstalling 0 for inst 0/2.1/5/24.24
 312500: system.cpu0.execute: Completed inst: 0/2.1/5/24.24 pc: 0x102c6 (c_addi)
 312500: system.cpu0.execute.scoreboard0: Clearing inst: 0/2.1/5/24.24 pc: 0x102c6 (c_addi) regIndex: 14 final numResults: 0
 312500: system.cpu0.execute: Trying to commit canCommitInsts: 1
 312500: system.cpu0.execute: Trying to commit from FUs
 312500: system.cpu0.execute: Attempting to issue [tid:0]
 312500: system.cpu0.execute:  ............... : 0/2.1/5/27.27 pc: 0x102ce (c_jr) 
 312500: system.cpu0.execute: Trying to issue inst: 0/2.1/5/27.27 pc: 0x102ce (c_jr) to FU: 0
 312500: system.cpu0.execute: Issuing inst: 0/2.1/5/27.27 pc: 0x102ce (c_jr) into FU 0
 312500: system.cpu0.execute: Reached inst issue limit
 312500: system.cpu0.execute: Stepping to next inst inputIndex: 1
 312500: system.cpu0.execute: Wrapping
 313000: system.cpu0.execute.lsq.storeBuffer: StoreBuffer step numUnissuedAccesses: 1
 313000: system.cpu0.execute: No interrupt controller
 313000: system.cpu0.execute: [tid:0] thread_interrupted?=0 isInbetweenInsts?=1
 313000: system.cpu0.execute: Attempting to commit [tid:0]
 313000: system.cpu0.execute: Committing micro-ops for interrupt[tid:0]
 313000: system.cpu0.execute: Trying to commit canCommitInsts: 1
 313000: system.cpu0.execute: Trying to commit from FUs
 313000: global: ExecContext setting PC: (0x102c8=>0x102cc).(0=>1)
 313000: system.cpu0.execute: Committing inst: 0/2.1/5/25.25 pc: 0x102c8 (bltu)
 313000: system.cpu0.execute: Unstalling 0 for inst 0/2.1/5/25.25
 313000: system.cpu0.execute: Completed inst: 0/2.1/5/25.25 pc: 0x102c8 (bltu)
 313000: system.cpu0.execute: Attempting to issue [tid:0]
 313000: system.cpu0.execute:  ............... : 0/2.1/5/28.28 pc: 0x102d0 (sub) 
 313000: system.cpu0.execute: Discarding inst: 0/2.1/5/28.28 pc: 0x102d0 (sub) as its stream state was unexpected, expected: 3
 313000: system.cpu0.execute: Stepping to next inst inputIndex: 1
 313000: system.cpu0.execute: Wrapping
 313500: system.cpu0.execute.lsq.storeBuffer: StoreBuffer step numUnissuedAccesses: 1
 313500: system.cpu0.execute: No interrupt controller
 313500: system.cpu0.execute: [tid:0] thread_interrupted?=0 isInbetweenInsts?=1
 313500: system.cpu0.execute: Attempting to commit [tid:0]
 313500: system.cpu0.execute: Committing micro-ops for interrupt[tid:0]
 313500: system.cpu0.execute: Trying to commit canCommitInsts: 1
 313500: system.cpu0.execute: Trying to commit from FUs
 313500: system.cpu0.execute: Unstalling 0 for inst 0/2.1/5/26.26
 313500: system.cpu0.execute: Discarding inst: 0/2.1/5/26.26 pc: 0x102cc (c_bnez) as its stream state was unexpected, expected: 3
 313500: system.cpu0.execute: Completed inst: 0/2.1/5/26.26 pc: 0x102cc (c_bnez)
 313500: system.cpu0.execute: Trying to commit canCommitInsts: 1
 313500: system.cpu0.execute: Trying to commit from FUs
 313500: system.cpu0.execute: Attempting to issue [tid:0]
 313500: system.cpu0.execute:  ............... : 0/2.1/5/29.29 pc: 0x102d4 (c_slli) 
 313500: system.cpu0.execute: Discarding inst: 0/2.1/5/29.29 pc: 0x102d4 (c_slli) as its stream state was unexpected, expected: 3
 313500: system.cpu0.execute: Stepping to next inst inputIndex: 1
 313500: system.cpu0.execute: Wrapping
 314000: system.cpu0.execute.lsq.storeBuffer: StoreBuffer step numUnissuedAccesses: 1
 314000: system.cpu0.execute: No interrupt controller
 314000: system.cpu0.execute: [tid:0] thread_interrupted?=0 isInbetweenInsts?=1
 314000: system.cpu0.execute: Attempting to commit [tid:0]
 314000: system.cpu0.execute: Committing micro-ops for interrupt[tid:0]
 314000: system.cpu0.execute: Trying to commit canCommitInsts: 1
 314000: system.cpu0.execute: Trying to commit from FUs
 314000: system.cpu0.execute: Unstalling 0 for inst 0/2.1/5/27.27
 314000: system.cpu0.execute: Discarding inst: 0/2.1/5/27.27 pc: 0x102ce (c_jr) as its stream state was unexpected, expected: 3
 314000: system.cpu0.execute: Completed inst: 0/2.1/5/27.27 pc: 0x102ce (c_jr)
 314000: system.cpu0.execute: Attempting to issue [tid:0]
 314000: system.cpu0.execute:  ............... : 0/2.1/5/30.30 pc: 0x102d6 (auipc) 
 314000: system.cpu0.execute: Discarding inst: 0/2.1/5/30.30 pc: 0x102d6 (auipc) as its stream state was unexpected, expected: 3
 314000: system.cpu0.execute: Stepping to next inst inputIndex: 1
 314000: system.cpu0.execute: Wrapping
 358500: system.cpu0.execute.lsq: Received retry request
 358500: system.cpu0.execute.lsq: Setting state from StoreBufferNeedsRetry to StoreInStoreBuffer for request: 0/2.1/5/23.23 pc: 0x102c4 (c_sd)
 358500: system.cpu0.execute.lsq: Trying to send request: 0/2.1/5/23.23 pc: 0x102c4 (c_sd) addr: 0x11c88
 358500: system.cpu0.execute.lsq: Sending data memory request - needs retry
 358500: system.cpu0.execute.lsq: Setting state from StoreInStoreBuffer to StoreBufferNeedsRetry for request: 0/2.1/5/23.23 pc: 0x102c4 (c_sd)
 359500: system.cpu0.execute.lsq.storeBuffer: StoreBuffer step numUnissuedAccesses: 1
 359500: system.cpu0.execute: No interrupt controller
 359500: system.cpu0.execute: [tid:0] thread_interrupted?=0 isInbetweenInsts?=1
 360000: system.cpu0.execute.lsq.storeBuffer: StoreBuffer step numUnissuedAccesses: 1
 360000: system.cpu0.execute: No interrupt controller
 360000: system.cpu0.execute: [tid:0] thread_interrupted?=0 isInbetweenInsts?=1
 360500: system.cpu0.execute.lsq: Received retry request
 360500: system.cpu0.execute.lsq: Setting state from StoreBufferNeedsRetry to StoreInStoreBuffer for request: 0/2.1/5/23.23 pc: 0x102c4 (c_sd)
 360500: system.cpu0.execute.lsq: Trying to send request: 0/2.1/5/23.23 pc: 0x102c4 (c_sd) addr: 0x11c88
 360500: system.cpu0.execute.lsq: Sending data memory request - needs retry
 360500: system.cpu0.execute.lsq: Setting state from StoreInStoreBuffer to StoreBufferNeedsRetry for request: 0/2.1/5/23.23 pc: 0x102c4 (c_sd)
 360500: system.cpu0.execute.lsq.storeBuffer: StoreBuffer step numUnissuedAccesses: 1
 360500: system.cpu0.execute: No interrupt controller
 360500: system.cpu0.execute: [tid:0] thread_interrupted?=0 isInbetweenInsts?=1
 361500: system.cpu0.execute.lsq.storeBuffer: StoreBuffer step numUnissuedAccesses: 1
 361500: system.cpu0.execute: No interrupt controller
 361500: system.cpu0.execute: [tid:0] thread_interrupted?=0 isInbetweenInsts?=1
 362000: system.cpu0.execute.lsq.storeBuffer: StoreBuffer step numUnissuedAccesses: 1
 362000: system.cpu0.execute: No interrupt controller
 362000: system.cpu0.execute: [tid:0] thread_interrupted?=0 isInbetweenInsts?=1
 362500: system.cpu0.execute.lsq: Received retry request
 362500: system.cpu0.execute.lsq: Setting state from StoreBufferNeedsRetry to StoreInStoreBuffer for request: 0/2.1/5/23.23 pc: 0x102c4 (c_sd)
 362500: system.cpu0.execute.lsq: Trying to send request: 0/2.1/5/23.23 pc: 0x102c4 (c_sd) addr: 0x11c88
 362500: system.cpu0.execute.lsq: Sending data memory request - needs retry
 362500: system.cpu0.execute.lsq: Setting state from StoreInStoreBuffer to StoreBufferNeedsRetry for request: 0/2.1/5/23.23 pc: 0x102c4 (c_sd)
 362500: system.cpu0.execute.lsq.storeBuffer: StoreBuffer step numUnissuedAccesses: 1
 362500: system.cpu0.execute: No interrupt controller
 362500: system.cpu0.execute: [tid:0] thread_interrupted?=0 isInbetweenInsts?=1
 363000: system.cpu0.execute.lsq.storeBuffer: StoreBuffer step numUnissuedAccesses: 1
 363000: system.cpu0.execute: No interrupt controller
 363000: system.cpu0.execute: [tid:0] thread_interrupted?=0 isInbetweenInsts?=1
 363000: system.cpu0.execute: Attempting to issue [tid:0]
 363000: system.cpu0.execute:  ............... : 0/3.1/7/31.31 pc: 0x102c2 (c_sd) 
 363000: system.cpu0.execute: Trying to issue inst: 0/3.1/7/31.31 pc: 0x102c2 (c_sd) to FU: 0
 363000: system.cpu0.execute: Can't issue as FU: 0 isn't capable
 363000: system.cpu0.execute: Trying to issue inst: 0/3.1/7/31.31 pc: 0x102c2 (c_sd) to FU: 1
 363000: system.cpu0.execute: Can't issue as FU: 1 isn't capable
 363000: system.cpu0.execute: Trying to issue inst: 0/3.1/7/31.31 pc: 0x102c2 (c_sd) to FU: 2
 363000: system.cpu0.execute: Can't issue as FU: 2 isn't capable
 363000: system.cpu0.execute: Trying to issue inst: 0/3.1/7/31.31 pc: 0x102c2 (c_sd) to FU: 3
 363000: system.cpu0.execute: Can't issue as FU: 3 isn't capable
 363000: system.cpu0.execute: Trying to issue inst: 0/3.1/7/31.31 pc: 0x102c2 (c_sd) to FU: 4
 363000: system.cpu0.execute: Can't issue as FU: 4 isn't capable
 363000: system.cpu0.execute: Trying to issue inst: 0/3.1/7/31.31 pc: 0x102c2 (c_sd) to FU: 5
 363000: system.cpu0.execute: Issuing inst: 0/3.1/7/31.31 pc: 0x102c2 (c_sd) into FU 5
 363000: system.cpu0.execute.scoreboard0: Inst: 0/3.1/7/31.31 pc: 0x102c2 (c_sd) depends on execSeqNum: 0
 363000: system.cpu0.execute: Memory ref inst: 0/3.1/7/31.31 pc: 0x102c2 (c_sd) must wait for inst 0(exec) before issuing
 363000: system.cpu0.execute: Pushing mem inst: 0/3.1/7/31.31 pc: 0x102c2 (c_sd)
 363000: system.cpu0.execute: Reached inst issue limit
 363000: system.cpu0.execute: Stepping to next inst inputIndex: 1
 363000: system.cpu0.execute: Wrapping
 363500: system.cpu0.execute.lsq: Received retry request
 363500: system.cpu0.execute.lsq: Setting state from StoreBufferNeedsRetry to StoreInStoreBuffer for request: 0/2.1/5/23.23 pc: 0x102c4 (c_sd)
 363500: system.cpu0.execute.lsq: Trying to send request: 0/2.1/5/23.23 pc: 0x102c4 (c_sd) addr: 0x11c88
 363500: system.cpu0.execute.lsq: Sent data memory request
 363500: system.cpu0.execute.lsq: Setting state from StoreInStoreBuffer to StoreBufferIssuing for request: 0/2.1/5/23.23 pc: 0x102c4 (c_sd)
 363500: system.cpu0.execute.lsq.storeBuffer: StoreBuffer step numUnissuedAccesses: 0
 363500: system.cpu0.execute: No interrupt controller
 363500: system.cpu0.execute: [tid:0] thread_interrupted?=0 isInbetweenInsts?=1
 363500: system.cpu0.execute: Attempting to commit [tid:0]
 363500: system.cpu0.execute: Committing micro-ops for interrupt[tid:0]
 363500: system.cpu0.execute: Trying to commit canCommitInsts: 1
 363500: system.cpu0.execute: Trying to commit from mem FUs
 363500: system.cpu0.execute: Issuing mem ref early inst: 0/3.1/7/31.31 pc: 0x102c2 (c_sd) instToWaitFor: 0
 363500: global: ExecContext setting PC: (0x102c2=>0x102c4).(0=>1)
 363500: system.cpu0.execute: Initiating memRef inst: 0/3.1/7/31.31 pc: 0x102c2 (c_sd)
 363500: system.cpu0.execute.lsq: Pushing request (store) addr: 0x11c90 size: 8 flags: 0x0 lineWidth : 0x40
 363500: system.cpu0.execute.lsq: Setting state from NotIssued to InTranslation for request: 0/3.1/7/31.31 pc: 0x102c2 (c_sd)
 363500: system.cpu0.execute.lsq: Submitting DTLB request
 363500: system.cpu0.execute.lsq: Received translation response for request: 0/3.1/7/31.31 pc: 0x102c2 (c_sd)
 363500: system.cpu0.execute.lsq: Setting state from InTranslation to Translated for request: 0/3.1/7/31.31 pc: 0x102c2 (c_sd)
 363500: system.cpu0.execute.lsq: Setting state from Translated to StoreToStoreBuffer for request: 0/3.1/7/31.31 pc: 0x102c2 (c_sd)
 363500: system.cpu0.execute.lsq: Moving store into transfers queue
 363500: system.cpu0.execute: Unstalling 5 for inst 0/3.1/7/31.31
 363500: system.cpu0.execute.lsq: Found matching memory response for inst: 0/3.1/7/31.31 pc: 0x102c2 (c_sd)
 363500: system.cpu0.execute: Trying to commit canCommitInsts: 1
 363500: system.cpu0.execute: Trying to commit mem response: 0/3.1/7/31.31 pc: 0x102c2 (c_sd)
 363500: global: ExecContext setting PC: (0x102c2=>0x102c4).(0=>1)
 363500: system.cpu0.execute: Memory response inst: 0/3.1/7/31.31 pc: 0x102c2 (c_sd) addr: 0x1c90 size: 8
 363500: system.cpu0.execute.lsq: Sending store: 0/3.1/7/31.31 pc: 0x102c2 (c_sd) to store buffer
 363500: system.cpu0.execute.lsq.storeBuffer: Pushing store: 0x9e6fd80 into store buffer
 363500: system.cpu0.execute.lsq: Setting state from StoreToStoreBuffer to StoreInStoreBuffer for request: 0/3.1/7/31.31 pc: 0x102c2 (c_sd)
 363500: system.cpu0.execute: Completed inst: 0/3.1/7/31.31 pc: 0x102c2 (c_sd)
 363500: system.cpu0.execute: Reached mem ref commit limit
 363500: system.cpu0.execute: Attempting to issue [tid:0]
 363500: system.cpu0.execute:  ............... : 0/3.1/7/32.32 pc: 0x102c4 (c_sd) 
 363500: system.cpu0.execute: Trying to issue inst: 0/3.1/7/32.32 pc: 0x102c4 (c_sd) to FU: 0
 363500: system.cpu0.execute: Can't issue as FU: 0 isn't capable
 363500: system.cpu0.execute: Trying to issue inst: 0/3.1/7/32.32 pc: 0x102c4 (c_sd) to FU: 1
 363500: system.cpu0.execute: Can't issue as FU: 1 isn't capable
 363500: system.cpu0.execute: Trying to issue inst: 0/3.1/7/32.32 pc: 0x102c4 (c_sd) to FU: 2
 363500: system.cpu0.execute: Can't issue as FU: 2 isn't capable
 363500: system.cpu0.execute: Trying to issue inst: 0/3.1/7/32.32 pc: 0x102c4 (c_sd) to FU: 3
 363500: system.cpu0.execute: Can't issue as FU: 3 isn't capable
 363500: system.cpu0.execute: Trying to issue inst: 0/3.1/7/32.32 pc: 0x102c4 (c_sd) to FU: 4
 363500: system.cpu0.execute: Can't issue as FU: 4 isn't capable
 363500: system.cpu0.execute: Trying to issue inst: 0/3.1/7/32.32 pc: 0x102c4 (c_sd) to FU: 5
 363500: system.cpu0.execute: Issuing inst: 0/3.1/7/32.32 pc: 0x102c4 (c_sd) into FU 5
 363500: system.cpu0.execute.scoreboard0: Inst: 0/3.1/7/32.32 pc: 0x102c4 (c_sd) depends on execSeqNum: 0
 363500: system.cpu0.execute: Memory ref inst: 0/3.1/7/32.32 pc: 0x102c4 (c_sd) must wait for inst 0(exec) before issuing
 363500: system.cpu0.execute: Pushing mem inst: 0/3.1/7/32.32 pc: 0x102c4 (c_sd)
 363500: system.cpu0.execute: Reached inst issue limit
 363500: system.cpu0.execute: Stepping to next inst inputIndex: 1
 363500: system.cpu0.execute: Wrapping
 363501: system.cpu0.execute.lsq: Received response packet inst: 0/2.1/5/22.22 pc: 0x102c2 (c_sd) addr: 0x1c80 cmd: WriteResp
 363501: system.cpu0.execute.lsq: Retiring packet
 363501: system.cpu0.execute.lsq: Setting state from StoreBufferIssuing to Complete for request: 0/2.1/5/22.22 pc: 0x102c2 (c_sd)
 363501: system.cpu0.execute.lsq.storeBuffer: Deleting request: 0x9e6ff80 0x9e6ff80 0/2.1/5/22.22 pc: 0x102c2 (c_sd) from StoreBuffer
 364000: system.cpu0.execute.lsq.storeBuffer: StoreBuffer step numUnissuedAccesses: 1
 364000: system.cpu0.execute.lsq.storeBuffer: Considering request: 0/2.1/5/23.23 pc: 0x102c4 (c_sd), sentAllPackets: 1 state: StoreBufferIssuing
 364000: system.cpu0.execute.lsq.storeBuffer: Considering request: 0/3.1/7/31.31 pc: 0x102c2 (c_sd), sentAllPackets: 0 state: StoreInStoreBuffer
 364000: system.cpu0.execute.lsq.storeBuffer: Trying to send request: 0/3.1/7/31.31 pc: 0x102c2 (c_sd) to memory system
 364000: system.cpu0.execute.lsq: Trying to send request: 0/3.1/7/31.31 pc: 0x102c2 (c_sd) addr: 0x11c90
 364000: system.cpu0.execute.lsq: Sent data memory request
 364000: system.cpu0.execute.lsq: Setting state from StoreInStoreBuffer to StoreBufferIssuing for request: 0/3.1/7/31.31 pc: 0x102c2 (c_sd)
 364000: system.cpu0.execute: No interrupt controller
 364000: system.cpu0.execute: [tid:0] thread_interrupted?=0 isInbetweenInsts?=1
 364000: system.cpu0.execute: Attempting to commit [tid:0]
 364000: system.cpu0.execute: Committing micro-ops for interrupt[tid:0]
 364000: system.cpu0.execute: Trying to commit canCommitInsts: 1
 364000: system.cpu0.execute: Trying to commit from mem FUs
 364000: system.cpu0.execute: Issuing mem ref early inst: 0/3.1/7/32.32 pc: 0x102c4 (c_sd) instToWaitFor: 0
 364000: global: ExecContext setting PC: (0x102c4=>0x102c6).(0=>1)
 364000: system.cpu0.execute: Initiating memRef inst: 0/3.1/7/32.32 pc: 0x102c4 (c_sd)
 364000: system.cpu0.execute.lsq: Pushing request (store) addr: 0x11c98 size: 8 flags: 0x0 lineWidth : 0x40
 364000: system.cpu0.execute.lsq: Setting state from NotIssued to InTranslation for request: 0/3.1/7/32.32 pc: 0x102c4 (c_sd)
 364000: system.cpu0.execute.lsq: Submitting DTLB request
 364000: system.cpu0.execute.lsq: Received translation response for request: 0/3.1/7/32.32 pc: 0x102c4 (c_sd)
 364000: system.cpu0.execute.lsq: Setting state from InTranslation to Translated for request: 0/3.1/7/32.32 pc: 0x102c4 (c_sd)
 364000: system.cpu0.execute.lsq: Setting state from Translated to StoreToStoreBuffer for request: 0/3.1/7/32.32 pc: 0x102c4 (c_sd)
 364000: system.cpu0.execute.lsq: Moving store into transfers queue
 364000: system.cpu0.execute: Unstalling 5 for inst 0/3.1/7/32.32
 364000: system.cpu0.execute.lsq: Found matching memory response for inst: 0/3.1/7/32.32 pc: 0x102c4 (c_sd)
 364000: system.cpu0.execute: Trying to commit canCommitInsts: 1
 364000: system.cpu0.execute: Trying to commit mem response: 0/3.1/7/32.32 pc: 0x102c4 (c_sd)
 364000: global: ExecContext setting PC: (0x102c4=>0x102c6).(0=>1)
 364000: system.cpu0.execute: Memory response inst: 0/3.1/7/32.32 pc: 0x102c4 (c_sd) addr: 0x1c98 size: 8
 364000: system.cpu0.execute.lsq: Sending store: 0/3.1/7/32.32 pc: 0x102c4 (c_sd) to store buffer
 364000: system.cpu0.execute.lsq.storeBuffer: Pushing store: 0x9e6fe00 into store buffer
 364000: system.cpu0.execute.lsq: Setting state from StoreToStoreBuffer to StoreInStoreBuffer for request: 0/3.1/7/32.32 pc: 0x102c4 (c_sd)
 364000: system.cpu0.execute: Completed inst: 0/3.1/7/32.32 pc: 0x102c4 (c_sd)
 364000: system.cpu0.execute: Reached mem ref commit limit
 364000: system.cpu0.execute: Attempting to issue [tid:0]
 364000: system.cpu0.execute:  ............... : 0/3.1/7/33.33 pc: 0x102c6 (c_addi) 
 364000: system.cpu0.execute: Trying to issue inst: 0/3.1/7/33.33 pc: 0x102c6 (c_addi) to FU: 0
 364000: system.cpu0.execute: Issuing inst: 0/3.1/7/33.33 pc: 0x102c6 (c_addi) into FU 0
 364000: system.cpu0.execute.scoreboard0: Marking up inst: 0/3.1/7/33.33 pc: 0x102c6 (c_addi) regIndex: 14 final numResults: 1 returnCycle: 731
 364000: system.cpu0.execute: Reached inst issue limit
 364000: system.cpu0.execute: Stepping to next inst inputIndex: 1
 364000: system.cpu0.execute: Wrapping
 364000: system.cpu0.execute.lsq: No matching memory response for inst: 0/3.1/7/33.33 pc: 0x102c6 (c_addi)
 364001: system.cpu0.execute.lsq: Received response packet inst: 0/2.1/5/23.23 pc: 0x102c4 (c_sd) addr: 0x1c88 cmd: WriteResp
 364001: system.cpu0.execute.lsq: Retiring packet
 364001: system.cpu0.execute.lsq: Setting state from StoreBufferIssuing to Complete for request: 0/2.1/5/23.23 pc: 0x102c4 (c_sd)
 364001: system.cpu0.execute.lsq.storeBuffer: Deleting request: 0x9e6fe80 0x9e6fe80 0/2.1/5/23.23 pc: 0x102c4 (c_sd) from StoreBuffer
 364500: system.cpu0.execute.lsq.storeBuffer: StoreBuffer step numUnissuedAccesses: 1
 364500: system.cpu0.execute.lsq.storeBuffer: Considering request: 0/3.1/7/31.31 pc: 0x102c2 (c_sd), sentAllPackets: 1 state: StoreBufferIssuing
 364500: system.cpu0.execute.lsq.storeBuffer: Considering request: 0/3.1/7/32.32 pc: 0x102c4 (c_sd), sentAllPackets: 0 state: StoreInStoreBuffer
 364500: system.cpu0.execute.lsq.storeBuffer: Trying to send request: 0/3.1/7/32.32 pc: 0x102c4 (c_sd) to memory system
 364500: system.cpu0.execute.lsq: Trying to send request: 0/3.1/7/32.32 pc: 0x102c4 (c_sd) addr: 0x11c98
 364500: system.cpu0.execute.lsq: Sent data memory request
 364500: system.cpu0.execute.lsq: Setting state from StoreInStoreBuffer to StoreBufferIssuing for request: 0/3.1/7/32.32 pc: 0x102c4 (c_sd)
 364500: system.cpu0.execute: No interrupt controller
 364500: system.cpu0.execute: [tid:0] thread_interrupted?=0 isInbetweenInsts?=1
 364500: system.cpu0.execute: Attempting to issue [tid:0]
 364500: system.cpu0.execute:  ............... : 0/3.1/7/34.34 pc: 0x102c8 (bltu) 
 364500: system.cpu0.execute: Trying to issue inst: 0/3.1/7/34.34 pc: 0x102c8 (bltu) to FU: 0
 364500: system.cpu0.execute: Issuing inst: 0/3.1/7/34.34 pc: 0x102c8 (bltu) into FU 0
 364500: system.cpu0.execute: Reached inst issue limit
 364500: system.cpu0.execute: Stepping to next inst inputIndex: 1
 364500: system.cpu0.execute: Wrapping
 364500: system.cpu0.execute.lsq: No matching memory response for inst: 0/3.1/7/33.33 pc: 0x102c6 (c_addi)
 364501: system.cpu0.execute.lsq: Received response packet inst: 0/3.1/7/31.31 pc: 0x102c2 (c_sd) addr: 0x1c90 cmd: WriteResp
 364501: system.cpu0.execute.lsq: Retiring packet
 364501: system.cpu0.execute.lsq: Setting state from StoreBufferIssuing to Complete for request: 0/3.1/7/31.31 pc: 0x102c2 (c_sd)
 364501: system.cpu0.execute.lsq.storeBuffer: Deleting request: 0x9e6fd80 0x9e6fd80 0/3.1/7/31.31 pc: 0x102c2 (c_sd) from StoreBuffer
 365000: system.cpu0.execute.lsq.storeBuffer: StoreBuffer step numUnissuedAccesses: 0
 365000: system.cpu0.execute: No interrupt controller
 365000: system.cpu0.execute: [tid:0] thread_interrupted?=0 isInbetweenInsts?=1
 365000: system.cpu0.execute: Attempting to issue [tid:0]
 365000: system.cpu0.execute:  ............... : 0/3.1/7/35.35 pc: 0x102cc (c_bnez) 
 365000: system.cpu0.execute: Trying to issue inst: 0/3.1/7/35.35 pc: 0x102cc (c_bnez) to FU: 0
 365000: system.cpu0.execute: Issuing inst: 0/3.1/7/35.35 pc: 0x102cc (c_bnez) into FU 0
 365000: system.cpu0.execute: Reached inst issue limit
 365000: system.cpu0.execute: Stepping to next inst inputIndex: 1
 365000: system.cpu0.execute: Wrapping
 365001: system.cpu0.execute.lsq: Received response packet inst: 0/3.1/7/32.32 pc: 0x102c4 (c_sd) addr: 0x1c98 cmd: WriteResp
 365001: system.cpu0.execute.lsq: Retiring packet
 365001: system.cpu0.execute.lsq: Setting state from StoreBufferIssuing to Complete for request: 0/3.1/7/32.32 pc: 0x102c4 (c_sd)
 365001: system.cpu0.execute.lsq.storeBuffer: Deleting request: 0x9e6fe00 0x9e6fe00 0/3.1/7/32.32 pc: 0x102c4 (c_sd) from StoreBuffer
 365500: system.cpu0.execute.lsq.storeBuffer: StoreBuffer step numUnissuedAccesses: 0
 365500: system.cpu0.execute: No interrupt controller
 365500: system.cpu0.execute: [tid:0] thread_interrupted?=0 isInbetweenInsts?=1
 365500: system.cpu0.execute: Attempting to commit [tid:0]
 365500: system.cpu0.execute: Committing micro-ops for interrupt[tid:0]
 365500: system.cpu0.execute: Trying to commit canCommitInsts: 1
 365500: system.cpu0.execute: Trying to commit from FUs
 365500: global: ExecContext setting PC: (0x102c6=>0x102c8).(0=>1)
 365500: system.cpu0.execute: Committing inst: 0/3.1/7/33.33 pc: 0x102c6 (c_addi)
 365500: system.cpu0.execute: Unstalling 0 for inst 0/3.1/7/33.33
 365500: system.cpu0.execute: Completed inst: 0/3.1/7/33.33 pc: 0x102c6 (c_addi)
 365500: system.cpu0.execute.scoreboard0: Clearing inst: 0/3.1/7/33.33 pc: 0x102c6 (c_addi) regIndex: 14 final numResults: 0
 365500: system.cpu0.execute: Trying to commit canCommitInsts: 1
 365500: system.cpu0.execute: Trying to commit from FUs
 365500: system.cpu0.execute: Attempting to issue [tid:0]
 365500: system.cpu0.execute:  ............... : 0/3.1/7/36.36 pc: 0x102ce (c_jr) 
 365500: system.cpu0.execute: Trying to issue inst: 0/3.1/7/36.36 pc: 0x102ce (c_jr) to FU: 0
 365500: system.cpu0.execute: Issuing inst: 0/3.1/7/36.36 pc: 0x102ce (c_jr) into FU 0
 365500: system.cpu0.execute: Reached inst issue limit
 365500: system.cpu0.execute: Stepping to next inst inputIndex: 1
 365500: system.cpu0.execute: Wrapping
 366000: system.cpu0.execute.lsq.storeBuffer: StoreBuffer step numUnissuedAccesses: 0
 366000: system.cpu0.execute: No interrupt controller
 366000: system.cpu0.execute: [tid:0] thread_interrupted?=0 isInbetweenInsts?=1
 366000: system.cpu0.execute: Attempting to commit [tid:0]
 366000: system.cpu0.execute: Committing micro-ops for interrupt[tid:0]
 366000: system.cpu0.execute: Trying to commit canCommitInsts: 1
 366000: system.cpu0.execute: Trying to commit from FUs
 366000: global: ExecContext setting PC: (0x102c8=>0x102cc).(0=>1)
 366000: system.cpu0.execute: Committing inst: 0/3.1/7/34.34 pc: 0x102c8 (bltu)
 366000: system.cpu0.execute: Unstalling 0 for inst 0/3.1/7/34.34
 366000: system.cpu0.execute: Completed inst: 0/3.1/7/34.34 pc: 0x102c8 (bltu)
 366000: system.cpu0.execute: Attempting to issue [tid:0]
 366000: system.cpu0.execute:  ............... : 0/3.1/7/37.37 pc: 0x102d0 (sub) 
 366000: system.cpu0.execute: Discarding inst: 0/3.1/7/37.37 pc: 0x102d0 (sub) as its stream state was unexpected, expected: 4
 366000: system.cpu0.execute: Stepping to next inst inputIndex: 1
 366000: system.cpu0.execute: Wrapping
 366500: system.cpu0.execute.lsq.storeBuffer: StoreBuffer step numUnissuedAccesses: 0
 366500: system.cpu0.execute: No interrupt controller
 366500: system.cpu0.execute: [tid:0] thread_interrupted?=0 isInbetweenInsts?=1
 366500: system.cpu0.execute: Attempting to commit [tid:0]
 366500: system.cpu0.execute: Committing micro-ops for interrupt[tid:0]
 366500: system.cpu0.execute: Trying to commit canCommitInsts: 1
 366500: system.cpu0.execute: Trying to commit from FUs
 366500: system.cpu0.execute: Unstalling 0 for inst 0/3.1/7/35.35
 366500: system.cpu0.execute: Discarding inst: 0/3.1/7/35.35 pc: 0x102cc (c_bnez) as its stream state was unexpected, expected: 4
 366500: system.cpu0.execute: Completed inst: 0/3.1/7/35.35 pc: 0x102cc (c_bnez)
 366500: system.cpu0.execute: Trying to commit canCommitInsts: 1
 366500: system.cpu0.execute: Trying to commit from FUs
 366500: system.cpu0.execute: Attempting to issue [tid:0]
 366500: system.cpu0.execute:  ............... : 0/3.1/7/38.38 pc: 0x102d4 (c_slli) 
 366500: system.cpu0.execute: Discarding inst: 0/3.1/7/38.38 pc: 0x102d4 (c_slli) as its stream state was unexpected, expected: 4
 366500: system.cpu0.execute: Stepping to next inst inputIndex: 1
 366500: system.cpu0.execute: Wrapping
 367000: system.cpu0.execute.lsq.storeBuffer: StoreBuffer step numUnissuedAccesses: 0
 367000: system.cpu0.execute: No interrupt controller
 367000: system.cpu0.execute: [tid:0] thread_interrupted?=0 isInbetweenInsts?=1
 367000: system.cpu0.execute: Attempting to commit [tid:0]
 367000: system.cpu0.execute: Committing micro-ops for interrupt[tid:0]
 367000: system.cpu0.execute: Trying to commit canCommitInsts: 1
 367000: system.cpu0.execute: Trying to commit from FUs
 367000: system.cpu0.execute: Unstalling 0 for inst 0/3.1/7/36.36
 367000: system.cpu0.execute: Discarding inst: 0/3.1/7/36.36 pc: 0x102ce (c_jr) as its stream state was unexpected, expected: 4
 367000: system.cpu0.execute: Completed inst: 0/3.1/7/36.36 pc: 0x102ce (c_jr)
 367000: system.cpu0.execute: Attempting to issue [tid:0]
 367000: system.cpu0.execute:  ............... : 0/3.1/7/39.39 pc: 0x102d6 (auipc) 
 367000: system.cpu0.execute: Discarding inst: 0/3.1/7/39.39 pc: 0x102d6 (auipc) as its stream state was unexpected, expected: 4
 367000: system.cpu0.execute: Stepping to next inst inputIndex: 1
 367000: system.cpu0.execute: Wrapping
 368000: system.cpu0.execute.lsq.storeBuffer: StoreBuffer step numUnissuedAccesses: 0
 368000: system.cpu0.execute: No interrupt controller
 368000: system.cpu0.execute: [tid:0] thread_interrupted?=0 isInbetweenInsts?=1
 368500: system.cpu0.execute.lsq.storeBuffer: StoreBuffer step numUnissuedAccesses: 0
 368500: system.cpu0.execute: No interrupt controller
 368500: system.cpu0.execute: [tid:0] thread_interrupted?=0 isInbetweenInsts?=1
 369000: system.cpu0.execute.lsq.storeBuffer: StoreBuffer step numUnissuedAccesses: 0
 369000: system.cpu0.execute: No interrupt controller
 369000: system.cpu0.execute: [tid:0] thread_interrupted?=0 isInbetweenInsts?=1
 369500: system.cpu0.execute.lsq.storeBuffer: StoreBuffer step numUnissuedAccesses: 0
 369500: system.cpu0.execute: No interrupt controller
 369500: system.cpu0.execute: [tid:0] thread_interrupted?=0 isInbetweenInsts?=1
 369500: system.cpu0.execute: Attempting to issue [tid:0]
 369500: system.cpu0.execute:  ............... : 0/4.1/9/40.40 pc: 0x102c2 (c_sd) 
 369500: system.cpu0.execute: Trying to issue inst: 0/4.1/9/40.40 pc: 0x102c2 (c_sd) to FU: 0
 369500: system.cpu0.execute: Can't issue as FU: 0 isn't capable
 369500: system.cpu0.execute: Trying to issue inst: 0/4.1/9/40.40 pc: 0x102c2 (c_sd) to FU: 1
 369500: system.cpu0.execute: Can't issue as FU: 1 isn't capable
 369500: system.cpu0.execute: Trying to issue inst: 0/4.1/9/40.40 pc: 0x102c2 (c_sd) to FU: 2
 369500: system.cpu0.execute: Can't issue as FU: 2 isn't capable
 369500: system.cpu0.execute: Trying to issue inst: 0/4.1/9/40.40 pc: 0x102c2 (c_sd) to FU: 3
 369500: system.cpu0.execute: Can't issue as FU: 3 isn't capable
 369500: system.cpu0.execute: Trying to issue inst: 0/4.1/9/40.40 pc: 0x102c2 (c_sd) to FU: 4
 369500: system.cpu0.execute: Can't issue as FU: 4 isn't capable
 369500: system.cpu0.execute: Trying to issue inst: 0/4.1/9/40.40 pc: 0x102c2 (c_sd) to FU: 5
 369500: system.cpu0.execute: Issuing inst: 0/4.1/9/40.40 pc: 0x102c2 (c_sd) into FU 5
 369500: system.cpu0.execute.scoreboard0: Inst: 0/4.1/9/40.40 pc: 0x102c2 (c_sd) depends on execSeqNum: 0
 369500: system.cpu0.execute: Memory ref inst: 0/4.1/9/40.40 pc: 0x102c2 (c_sd) must wait for inst 0(exec) before issuing
 369500: system.cpu0.execute: Pushing mem inst: 0/4.1/9/40.40 pc: 0x102c2 (c_sd)
 369500: system.cpu0.execute: Reached inst issue limit
 369500: system.cpu0.execute: Stepping to next inst inputIndex: 1
 369500: system.cpu0.execute: Wrapping
 370000: system.cpu0.execute.lsq.storeBuffer: StoreBuffer step numUnissuedAccesses: 0
 370000: system.cpu0.execute: No interrupt controller
 370000: system.cpu0.execute: [tid:0] thread_interrupted?=0 isInbetweenInsts?=1
 370000: system.cpu0.execute: Attempting to commit [tid:0]
 370000: system.cpu0.execute: Committing micro-ops for interrupt[tid:0]
[...]
1196500: system.cpu0.execute.lsq: Pushing request (load) addr: 0x7fffffffffffff00 size: 64 flags: 0x0 lineWidth : 0x40
1196500: system.cpu0.execute.lsq: Setting state from NotIssued to InTranslation for request: 0/23.2/59/299.299 pc: 0x100e2 (ss_wr_dma)
1196500: system.cpu0.execute.lsq: Submitting DTLB request
1196500: system.cpu0.execute.lsq: Received translation response for request: 0/23.2/59/299.299 pc: 0x100e2 (ss_wr_dma)
1196500: system.cpu0.execute.lsq: Setting state from InTranslation to Translated for request: 0/23.2/59/299.299 pc: 0x100e2 (ss_wr_dma)
1196500: system.cpu0.execute.lsq: No forwardable data from store buffer
1196500: system.cpu0.execute.lsq: Trying to send request: 0/23.2/59/299.299 pc: 0x100e2 (ss_wr_dma) addr: 0x7fffffffffffff00
1196500: system.cpu0.execute.lsq: Sent data memory request
1196500: system.cpu0.execute.lsq: Setting state from Translated to RequestIssuing for request: 0/23.2/59/299.299 pc: 0x100e2 (ss_wr_dma)
1196500: system.cpu0.execute.lsq: No matching memory response for stream: 34
1196500: system.cpu0.execute.lsq: No matching memory response for stream: 23
1196500: system.cpu0.execute.lsq: No matching memory response for stream: 24
1196500: system.cpu0.execute.lsq: No matching memory response for stream: 25
1196500: system.cpu0.execute.lsq: No matching memory response for stream: 26
1196500: system.cpu0.execute.lsq: No matching memory response for stream: 27
1196500: system.cpu0.execute.lsq: No matching memory response for stream: 28
1196500: system.cpu0.execute.lsq: No matching memory response for stream: 29
1196500: system.cpu0.execute.lsq: No matching memory response for stream: 30
1196500: system.cpu0.execute.lsq: No matching memory response for stream: 31
1196500: system.cpu0.execute: No interrupt controller
1196500: system.cpu0.execute: [tid:0] thread_interrupted?=0 isInbetweenInsts?=1
1196500: system.cpu0.execute: Attempting to commit [tid:0]
1196500: system.cpu0.execute: Committing micro-ops for interrupt[tid:0]
1196500: system.cpu0.execute: Trying to commit canCommitInsts: 1
1196500: system.cpu0.execute: Committing no cost inst: 0/23.2/59/300.300 pc: 0x100e6 (ss_wait)
1196500: system.cpu0.execute: Attempting to issue [tid:0]
1196500: system.cpu0.execute:  ............... : 0/23.2/59/307.307 pc: 0x100fc (addi) 
1196500: system.cpu0.execute: Trying to issue inst: 0/23.2/59/307.307 pc: 0x100fc (addi) to FU: 0
1196500: system.cpu0.execute: Can't issue inst: 0/23.2/59/307.307 pc: 0x100fc (addi) into FU: 0, it's stalled
1196500: system.cpu0.execute: Trying to issue inst: 0/23.2/59/307.307 pc: 0x100fc (addi) to FU: 1
1196500: system.cpu0.execute: Can't issue inst: 0/23.2/59/307.307 pc: 0x100fc (addi) into FU: 1, it's stalled
1196500: system.cpu0.execute: Trying to issue inst: 0/23.2/59/307.307 pc: 0x100fc (addi) to FU: 2
1196500: system.cpu0.execute: Can't issue as FU: 2 isn't capable
1196500: system.cpu0.execute: Trying to issue inst: 0/23.2/59/307.307 pc: 0x100fc (addi) to FU: 3
1196500: system.cpu0.execute: Can't issue as FU: 3 isn't capable
1196500: system.cpu0.execute: Trying to issue inst: 0/23.2/59/307.307 pc: 0x100fc (addi) to FU: 4
1196500: system.cpu0.execute: Can't issue as FU: 4 isn't capable
1196500: system.cpu0.execute: Trying to issue inst: 0/23.2/59/307.307 pc: 0x100fc (addi) to FU: 5
1196500: system.cpu0.execute: Can't issue as FU: 5 isn't capable
1196500: system.cpu0.execute: Trying to issue inst: 0/23.2/59/307.307 pc: 0x100fc (addi) to FU: 6
1196500: system.cpu0.execute: Can't issue as FU: 6 isn't capable
1196500: system.cpu0.execute: Didn't issue inst: 0/23.2/59/307.307 pc: 0x100fc (addi)
1196501: system.cpu0.execute.lsq: Received response packet inst: 0/23.2/59/299.299 pc: 0x100e2 (ss_wr_dma) addr: 0x2ec0 cmd: ReadResp
1196501: system.cpu0.execute.lsq: Retiring packet
1196501: system.cpu0.execute.lsq: Setting state from RequestIssuing to Complete for request: 0/23.2/59/299.299 pc: 0x100e2 (ss_wr_dma)
1196501: system.cpu0.execute.lsq: Has outstanding packets?: 0 1
1197000: system.cpu0.execute.lsq.storeBuffer: StoreBuffer step numUnissuedAccesses: 0
1197000: system.cpu0.execute.lsq: No matching memory response for stream: 34
1197000: system.cpu0.execute.lsq: Found matching memory response for stream: 4
1197000: system.cpu0.execute.lsq: Deleting load request: 0/23.2/59/299.299 pc: 0x100e2 (ss_wr_dma)
1197000: system.cpu0.execute.lsq: No matching memory response for stream: 23
1197000: system.cpu0.execute.lsq: No matching memory response for stream: 24
1197000: system.cpu0.execute.lsq: No matching memory response for stream: 25
1197000: system.cpu0.execute.lsq: No matching memory response for stream: 26
1197000: system.cpu0.execute.lsq: No matching memory response for stream: 27
1197000: system.cpu0.execute.lsq: No matching memory response for stream: 28
1197000: system.cpu0.execute.lsq: No matching memory response for stream: 29
1197000: system.cpu0.execute.lsq: No matching memory response for stream: 30
1197000: system.cpu0.execute.lsq: No matching memory response for stream: 31
1197000: system.cpu0.execute.lsq: Pushing request (load) addr: 0x7fffffffffffff40 size: 64 flags: 0x0 lineWidth : 0x40
1197000: system.cpu0.execute.lsq: Setting state from NotIssued to InTranslation for request: 0/23.2/59/299.299 pc: 0x100e2 (ss_wr_dma)
1197000: system.cpu0.execute.lsq: Submitting DTLB request
1197000: system.cpu0.execute.lsq: Received translation response for request: 0/23.2/59/299.299 pc: 0x100e2 (ss_wr_dma)
1197000: system.cpu0.execute.lsq: Setting state from InTranslation to Translated for request: 0/23.2/59/299.299 pc: 0x100e2 (ss_wr_dma)
1197000: system.cpu0.execute.lsq: No forwardable data from store buffer
1197000: system.cpu0.execute.lsq: Trying to send request: 0/23.2/59/299.299 pc: 0x100e2 (ss_wr_dma) addr: 0x7fffffffffffff40
1197000: system.cpu0.execute.lsq: Sent data memory request
1197000: system.cpu0.execute.lsq: Setting state from Translated to RequestIssuing for request: 0/23.2/59/299.299 pc: 0x100e2 (ss_wr_dma)
1197000: system.cpu0.execute.lsq: No matching memory response for stream: 34
1197000: system.cpu0.execute.lsq: No matching memory response for stream: 23
1197000: system.cpu0.execute.lsq: No matching memory response for stream: 24
1197000: system.cpu0.execute.lsq: No matching memory response for stream: 25
1197000: system.cpu0.execute.lsq: No matching memory response for stream: 26
1197000: system.cpu0.execute.lsq: No matching memory response for stream: 27
1197000: system.cpu0.execute.lsq: No matching memory response for stream: 28
1197000: system.cpu0.execute.lsq: No matching memory response for stream: 29
1197000: system.cpu0.execute.lsq: No matching memory response for stream: 30
1197000: system.cpu0.execute.lsq: No matching memory response for stream: 31
1197000: system.cpu0.execute: No interrupt controller
1197000: system.cpu0.execute: [tid:0] thread_interrupted?=0 isInbetweenInsts?=1
1197000: system.cpu0.execute: Attempting to commit [tid:0]
1197000: system.cpu0.execute: Committing micro-ops for interrupt[tid:0]
1197000: system.cpu0.execute: Trying to commit canCommitInsts: 1
1197000: system.cpu0.execute: Committing no cost inst: 0/23.2/59/300.300 pc: 0x100e6 (ss_wait)
1197000: system.cpu0.execute: Attempting to issue [tid:0]
1197000: system.cpu0.execute:  ............... : 0/23.2/59/307.307 pc: 0x100fc (addi) 
1197000: system.cpu0.execute: Trying to issue inst: 0/23.2/59/307.307 pc: 0x100fc (addi) to FU: 0
1197000: system.cpu0.execute: Can't issue inst: 0/23.2/59/307.307 pc: 0x100fc (addi) into FU: 0, it's stalled
1197000: system.cpu0.execute: Trying to issue inst: 0/23.2/59/307.307 pc: 0x100fc (addi) to FU: 1
1197000: system.cpu0.execute: Can't issue inst: 0/23.2/59/307.307 pc: 0x100fc (addi) into FU: 1, it's stalled
1197000: system.cpu0.execute: Trying to issue inst: 0/23.2/59/307.307 pc: 0x100fc (addi) to FU: 2
1197000: system.cpu0.execute: Can't issue as FU: 2 isn't capable
1197000: system.cpu0.execute: Trying to issue inst: 0/23.2/59/307.307 pc: 0x100fc (addi) to FU: 3
1197000: system.cpu0.execute: Can't issue as FU: 3 isn't capable
1197000: system.cpu0.execute: Trying to issue inst: 0/23.2/59/307.307 pc: 0x100fc (addi) to FU: 4
1197000: system.cpu0.execute: Can't issue as FU: 4 isn't capable
1197000: system.cpu0.execute: Trying to issue inst: 0/23.2/59/307.307 pc: 0x100fc (addi) to FU: 5
1197000: system.cpu0.execute: Can't issue as FU: 5 isn't capable
1197000: system.cpu0.execute: Trying to issue inst: 0/23.2/59/307.307 pc: 0x100fc (addi) to FU: 6
1197000: system.cpu0.execute: Can't issue as FU: 6 isn't capable
1197000: system.cpu0.execute: Didn't issue inst: 0/23.2/59/307.307 pc: 0x100fc (addi)
1197001: system.cpu0.execute.lsq: Received response packet inst: 0/23.2/59/299.299 pc: 0x100e2 (ss_wr_dma) addr: 0x2f00 cmd: ReadResp
1197001: system.cpu0.execute.lsq: Retiring packet
1197001: system.cpu0.execute.lsq: Setting state from RequestIssuing to Complete for request: 0/23.2/59/299.299 pc: 0x100e2 (ss_wr_dma)
1197001: system.cpu0.execute.lsq: Has outstanding packets?: 0 1
1197500: system.cpu0.execute.lsq.storeBuffer: StoreBuffer step numUnissuedAccesses: 0
1197500: system.cpu0.execute.lsq: No matching memory response for stream: 34
1197500: system.cpu0.execute.lsq: Found matching memory response for stream: 4
1197500: system.cpu0.execute.lsq: Deleting load request: 0/23.2/59/299.299 pc: 0x100e2 (ss_wr_dma)
1197500: system.cpu0.execute.lsq: No matching memory response for stream: 23
1197500: system.cpu0.execute.lsq: No matching memory response for stream: 24
1197500: system.cpu0.execute.lsq: No matching memory response for stream: 25
1197500: system.cpu0.execute.lsq: No matching memory response for stream: 26
1197500: system.cpu0.execute.lsq: No matching memory response for stream: 27
1197500: system.cpu0.execute.lsq: No matching memory response for stream: 28
1197500: system.cpu0.execute.lsq: No matching memory response for stream: 29
1197500: system.cpu0.execute.lsq: No matching memory response for stream: 30
1197500: system.cpu0.execute.lsq: No matching memory response for stream: 31
1197500: system.cpu0.execute.lsq: Pushing request (load) addr: 0x7fffffffffffff80 size: 64 flags: 0x0 lineWidth : 0x40
1197500: system.cpu0.execute.lsq: Setting state from NotIssued to InTranslation for request: 0/23.2/59/299.299 pc: 0x100e2 (ss_wr_dma)
1197500: system.cpu0.execute.lsq: Submitting DTLB request
1197500: system.cpu0.execute.lsq: Received translation response for request: 0/23.2/59/299.299 pc: 0x100e2 (ss_wr_dma)
1197500: system.cpu0.execute.lsq: Setting state from InTranslation to Translated for request: 0/23.2/59/299.299 pc: 0x100e2 (ss_wr_dma)
1197500: system.cpu0.execute.lsq: No forwardable data from store buffer
1197500: system.cpu0.execute.lsq: Trying to send request: 0/23.2/59/299.299 pc: 0x100e2 (ss_wr_dma) addr: 0x7fffffffffffff80
1197500: system.cpu0.execute.lsq: Sent data memory request
1197500: system.cpu0.execute.lsq: Setting state from Translated to RequestIssuing for request: 0/23.2/59/299.299 pc: 0x100e2 (ss_wr_dma)
1197500: system.cpu0.execute.lsq: No matching memory response for stream: 34
1197500: system.cpu0.execute.lsq: No matching memory response for stream: 23
1197500: system.cpu0.execute.lsq: No matching memory response for stream: 24
1197500: system.cpu0.execute.lsq: No matching memory response for stream: 25
1197500: system.cpu0.execute.lsq: No matching memory response for stream: 26
1197500: system.cpu0.execute.lsq: No matching memory response for stream: 27
1197500: system.cpu0.execute.lsq: No matching memory response for stream: 28
1197500: system.cpu0.execute.lsq: No matching memory response for stream: 29
1197500: system.cpu0.execute.lsq: No matching memory response for stream: 30
1197500: system.cpu0.execute.lsq: No matching memory response for stream: 31
1197500: system.cpu0.execute: No interrupt controller
1197500: system.cpu0.execute: [tid:0] thread_interrupted?=0 isInbetweenInsts?=1
1197500: system.cpu0.execute: Attempting to commit [tid:0]
1197500: system.cpu0.execute: Committing micro-ops for interrupt[tid:0]
1197500: system.cpu0.execute: Trying to commit canCommitInsts: 1
1197500: system.cpu0.execute: Committing no cost inst: 0/23.2/59/300.300 pc: 0x100e6 (ss_wait)
1197500: system.cpu0.execute: Attempting to issue [tid:0]
1197500: system.cpu0.execute:  ............... : 0/23.2/59/307.307 pc: 0x100fc (addi) 
1197500: system.cpu0.execute: Trying to issue inst: 0/23.2/59/307.307 pc: 0x100fc (addi) to FU: 0
1197500: system.cpu0.execute: Can't issue inst: 0/23.2/59/307.307 pc: 0x100fc (addi) into FU: 0, it's stalled
1197500: system.cpu0.execute: Trying to issue inst: 0/23.2/59/307.307 pc: 0x100fc (addi) to FU: 1
1197500: system.cpu0.execute: Can't issue inst: 0/23.2/59/307.307 pc: 0x100fc (addi) into FU: 1, it's stalled
1197500: system.cpu0.execute: Trying to issue inst: 0/23.2/59/307.307 pc: 0x100fc (addi) to FU: 2
1197500: system.cpu0.execute: Can't issue as FU: 2 isn't capable
1197500: system.cpu0.execute: Trying to issue inst: 0/23.2/59/307.307 pc: 0x100fc (addi) to FU: 3
1197500: system.cpu0.execute: Can't issue as FU: 3 isn't capable
1197500: system.cpu0.execute: Trying to issue inst: 0/23.2/59/307.307 pc: 0x100fc (addi) to FU: 4
1197500: system.cpu0.execute: Can't issue as FU: 4 isn't capable
1197500: system.cpu0.execute: Trying to issue inst: 0/23.2/59/307.307 pc: 0x100fc (addi) to FU: 5
1197500: system.cpu0.execute: Can't issue as FU: 5 isn't capable
1197500: system.cpu0.execute: Trying to issue inst: 0/23.2/59/307.307 pc: 0x100fc (addi) to FU: 6
1197500: system.cpu0.execute: Can't issue as FU: 6 isn't capable
1197500: system.cpu0.execute: Didn't issue inst: 0/23.2/59/307.307 pc: 0x100fc (addi)
1197501: system.cpu0.execute.lsq: Received response packet inst: 0/23.2/59/299.299 pc: 0x100e2 (ss_wr_dma) addr: 0x2f40 cmd: ReadResp
1197501: system.cpu0.execute.lsq: Retiring packet
1197501: system.cpu0.execute.lsq: Setting state from RequestIssuing to Complete for request: 0/23.2/59/299.299 pc: 0x100e2 (ss_wr_dma)
1197501: system.cpu0.execute.lsq: Has outstanding packets?: 0 1
1198000: system.cpu0.execute.lsq.storeBuffer: StoreBuffer step numUnissuedAccesses: 0
1198000: system.cpu0.execute.lsq: No matching memory response for stream: 34
1198000: system.cpu0.execute.lsq: Found matching memory response for stream: 4
1198000: system.cpu0.execute.lsq: Deleting load request: 0/23.2/59/299.299 pc: 0x100e2 (ss_wr_dma)
1198000: system.cpu0.execute.lsq: No matching memory response for stream: 23
1198000: system.cpu0.execute.lsq: No matching memory response for stream: 24
1198000: system.cpu0.execute.lsq: No matching memory response for stream: 25
1198000: system.cpu0.execute.lsq: No matching memory response for stream: 26
1198000: system.cpu0.execute.lsq: No matching memory response for stream: 27
1198000: system.cpu0.execute.lsq: No matching memory response for stream: 28
1198000: system.cpu0.execute.lsq: No matching memory response for stream: 29
1198000: system.cpu0.execute.lsq: No matching memory response for stream: 30
1198000: system.cpu0.execute.lsq: No matching memory response for stream: 31
1198000: system.cpu0.execute.lsq: Pushing request (load) addr: 0x7fffffffffffffc0 size: 64 flags: 0x0 lineWidth : 0x40
1198000: system.cpu0.execute.lsq: Setting state from NotIssued to InTranslation for request: 0/23.2/59/299.299 pc: 0x100e2 (ss_wr_dma)
1198000: system.cpu0.execute.lsq: Submitting DTLB request
1198000: system.cpu0.execute.lsq: Received translation response for request: 0/23.2/59/299.299 pc: 0x100e2 (ss_wr_dma)
1198000: system.cpu0.execute.lsq: Setting state from InTranslation to Translated for request: 0/23.2/59/299.299 pc: 0x100e2 (ss_wr_dma)
1198000: system.cpu0.execute.lsq: No forwardable data from store buffer
1198000: system.cpu0.execute.lsq: Trying to send request: 0/23.2/59/299.299 pc: 0x100e2 (ss_wr_dma) addr: 0x7fffffffffffffc0
1198000: system.cpu0.execute.lsq: Sent data memory request
1198000: system.cpu0.execute.lsq: Setting state from Translated to RequestIssuing for request: 0/23.2/59/299.299 pc: 0x100e2 (ss_wr_dma)
1198000: system.cpu0.execute.lsq: No matching memory response for stream: 34
1198000: system.cpu0.execute.lsq: No matching memory response for stream: 23
1198000: system.cpu0.execute.lsq: No matching memory response for stream: 24
1198000: system.cpu0.execute.lsq: No matching memory response for stream: 25
1198000: system.cpu0.execute.lsq: No matching memory response for stream: 26
1198000: system.cpu0.execute.lsq: No matching memory response for stream: 27
1198000: system.cpu0.execute.lsq: No matching memory response for stream: 28
1198000: system.cpu0.execute.lsq: No matching memory response for stream: 29
1198000: system.cpu0.execute.lsq: No matching memory response for stream: 30
1198000: system.cpu0.execute.lsq: No matching memory response for stream: 31
1198000: system.cpu0.execute: No interrupt controller
1198000: system.cpu0.execute: [tid:0] thread_interrupted?=0 isInbetweenInsts?=1
1198000: system.cpu0.execute: Attempting to commit [tid:0]
1198000: system.cpu0.execute: Committing micro-ops for interrupt[tid:0]
1198000: system.cpu0.execute: Trying to commit canCommitInsts: 1
1198000: system.cpu0.execute: Committing no cost inst: 0/23.2/59/300.300 pc: 0x100e6 (ss_wait)
1198000: system.cpu0.execute: Attempting to issue [tid:0]
1198000: system.cpu0.execute:  ............... : 0/23.2/59/307.307 pc: 0x100fc (addi) 
1198000: system.cpu0.execute: Trying to issue inst: 0/23.2/59/307.307 pc: 0x100fc (addi) to FU: 0
1198000: system.cpu0.execute: Can't issue inst: 0/23.2/59/307.307 pc: 0x100fc (addi) into FU: 0, it's stalled
1198000: system.cpu0.execute: Trying to issue inst: 0/23.2/59/307.307 pc: 0x100fc (addi) to FU: 1
1198000: system.cpu0.execute: Can't issue inst: 0/23.2/59/307.307 pc: 0x100fc (addi) into FU: 1, it's stalled
1198000: system.cpu0.execute: Trying to issue inst: 0/23.2/59/307.307 pc: 0x100fc (addi) to FU: 2
1198000: system.cpu0.execute: Can't issue as FU: 2 isn't capable
1198000: system.cpu0.execute: Trying to issue inst: 0/23.2/59/307.307 pc: 0x100fc (addi) to FU: 3
1198000: system.cpu0.execute: Can't issue as FU: 3 isn't capable
1198000: system.cpu0.execute: Trying to issue inst: 0/23.2/59/307.307 pc: 0x100fc (addi) to FU: 4
1198000: system.cpu0.execute: Can't issue as FU: 4 isn't capable
1198000: system.cpu0.execute: Trying to issue inst: 0/23.2/59/307.307 pc: 0x100fc (addi) to FU: 5
1198000: system.cpu0.execute: Can't issue as FU: 5 isn't capable
1198000: system.cpu0.execute: Trying to issue inst: 0/23.2/59/307.307 pc: 0x100fc (addi) to FU: 6
1198000: system.cpu0.execute: Can't issue as FU: 6 isn't capable
1198000: system.cpu0.execute: Didn't issue inst: 0/23.2/59/307.307 pc: 0x100fc (addi)
1198500: system.cpu0.execute.lsq.storeBuffer: StoreBuffer step numUnissuedAccesses: 0
1198500: system.cpu0.execute.lsq: No matching memory response for stream: 34
1198500: system.cpu0.execute.lsq: No matching memory response for stream: 4
1198500: system.cpu0.execute.lsq: No matching memory response for stream: 23
1198500: system.cpu0.execute.lsq: No matching memory response for stream: 24
1198500: system.cpu0.execute.lsq: No matching memory response for stream: 25
1198500: system.cpu0.execute.lsq: No matching memory response for stream: 26
1198500: system.cpu0.execute.lsq: No matching memory response for stream: 27
1198500: system.cpu0.execute.lsq: No matching memory response for stream: 28
1198500: system.cpu0.execute.lsq: No matching memory response for stream: 29
1198500: system.cpu0.execute.lsq: No matching memory response for stream: 30
1198500: system.cpu0.execute.lsq: No matching memory response for stream: 31
1198500: system.cpu0.execute.lsq: Pushing request (load) addr: 0x8000000000000000 size: 64 flags: 0x0 lineWidth : 0x40
1198500: system.cpu0.execute.lsq: Setting state from NotIssued to InTranslation for request: 0/23.2/59/299.299 pc: 0x100e2 (ss_wr_dma)
1198500: system.cpu0.execute.lsq: Submitting DTLB request
