gem5 Simulator System.  http://gem5.org
gem5 is copyrighted software; use the --copyright option for details.

gem5 compiled Oct  3 2018 15:02:46
gem5 started Oct  4 2018 16:57:52
gem5 executing on octa, pid 22334
command line: gem5.opt --debug-flag=MinorMem /home/vidushi/ss-stack/gem5/configs/example/se.py --cpu-type=MinorCPU --ruby --num-cpus=4 --num-dirs=4 --network=simple --topology=Mesh_XY --mesh-rows=2 --cmd=main

Global frequency set at 1000000000000 ticks per second
Loading SS Config (env SBCONFIG): "/home/vidushi/ss-stack/ss-tools/configs/spu_merge_test.sbmodel"
FU_FIFO_LEN:15
IND_ROB_SIZE:8
VPORT_IN depricated, ignoring colons, switch to PORT_IN
NUMBER OF MEMORY CONTROLLERS: 8
NUMBER OF SPU CORES: 4
**** REAL SIMULATION ****
    500: system.cpu3.execute.lsq.storeBuffer: StoreBuffer step numUnissuedAccesses: 0
    500: system.cpu2.execute.lsq.storeBuffer: StoreBuffer step numUnissuedAccesses: 0
    500: system.cpu1.execute.lsq.storeBuffer: StoreBuffer step numUnissuedAccesses: 0
    500: system.cpu0.execute.lsq.storeBuffer: StoreBuffer step numUnissuedAccesses: 0
   1000: system.cpu0.execute.lsq.storeBuffer: StoreBuffer step numUnissuedAccesses: 0
   1000: system.cpu1.execute.lsq.storeBuffer: StoreBuffer step numUnissuedAccesses: 0
   1000: system.cpu2.execute.lsq.storeBuffer: StoreBuffer step numUnissuedAccesses: 0
   1000: system.cpu3.execute.lsq.storeBuffer: StoreBuffer step numUnissuedAccesses: 0
  71500: system.cpu0.execute.lsq.storeBuffer: StoreBuffer step numUnissuedAccesses: 0
  72000: system.cpu0.execute.lsq.storeBuffer: StoreBuffer step numUnissuedAccesses: 0
  72500: system.cpu0.execute.lsq.storeBuffer: StoreBuffer step numUnissuedAccesses: 0
  73000: system.cpu0.execute.lsq.storeBuffer: StoreBuffer step numUnissuedAccesses: 0
  73000: system.cpu0.execute.lsq: No matching memory response for inst: 0/1.1/1/1.1 pc: 0x100f0 (auipc)
  73500: system.cpu0.execute.lsq.storeBuffer: StoreBuffer step numUnissuedAccesses: 0
  73500: system.cpu0.execute.lsq: No matching memory response for inst: 0/1.1/1/1.1 pc: 0x100f0 (auipc)
  74000: system.cpu0.execute.lsq.storeBuffer: StoreBuffer step numUnissuedAccesses: 0
  74500: system.cpu0.execute.lsq.storeBuffer: StoreBuffer step numUnissuedAccesses: 0
  75000: system.cpu0.execute.lsq.storeBuffer: StoreBuffer step numUnissuedAccesses: 0
  75500: system.cpu0.execute.lsq.storeBuffer: StoreBuffer step numUnissuedAccesses: 0
  76000: system.cpu0.execute.lsq.storeBuffer: StoreBuffer step numUnissuedAccesses: 0
 130500: system.cpu0.execute.lsq.storeBuffer: StoreBuffer step numUnissuedAccesses: 0
 131000: system.cpu0.execute.lsq.storeBuffer: StoreBuffer step numUnissuedAccesses: 0
 131500: system.cpu0.execute.lsq.storeBuffer: StoreBuffer step numUnissuedAccesses: 0
 132000: system.cpu0.execute.lsq.storeBuffer: StoreBuffer step numUnissuedAccesses: 0
 132000: system.cpu0.execute.lsq: No matching memory response for inst: 0/1.1/2/5.5 pc: 0x10100 (c_sub)
 132500: system.cpu0.execute.lsq.storeBuffer: StoreBuffer step numUnissuedAccesses: 0
 132500: system.cpu0.execute.lsq: No matching memory response for inst: 0/1.1/2/5.5 pc: 0x10100 (c_sub)
 133000: system.cpu0.execute.lsq.storeBuffer: StoreBuffer step numUnissuedAccesses: 0
 133500: system.cpu0.execute.lsq.storeBuffer: StoreBuffer step numUnissuedAccesses: 0
 134000: system.cpu0.execute.lsq.storeBuffer: StoreBuffer step numUnissuedAccesses: 0
 134500: system.cpu0.execute.lsq.storeBuffer: StoreBuffer step numUnissuedAccesses: 0
 135000: system.cpu0.execute.lsq.storeBuffer: StoreBuffer step numUnissuedAccesses: 0
 135500: system.cpu0.execute.lsq.storeBuffer: StoreBuffer step numUnissuedAccesses: 0
 191500: system.cpu0.execute.lsq.storeBuffer: StoreBuffer step numUnissuedAccesses: 0
 192000: system.cpu0.execute.lsq.storeBuffer: StoreBuffer step numUnissuedAccesses: 0
 192500: system.cpu0.execute.lsq.storeBuffer: StoreBuffer step numUnissuedAccesses: 0
 252500: system.cpu0.execute.lsq.storeBuffer: StoreBuffer step numUnissuedAccesses: 0
 253000: system.cpu0.execute.lsq.storeBuffer: StoreBuffer step numUnissuedAccesses: 0
 253500: system.cpu0.execute.lsq.storeBuffer: StoreBuffer step numUnissuedAccesses: 0
 254000: system.cpu0.execute.lsq.storeBuffer: StoreBuffer step numUnissuedAccesses: 0
 254000: system.cpu0.execute.lsq: No matching memory response for inst: 0/2.1/4/13.13 pc: 0x102aa (c_li)
 254500: system.cpu0.execute.lsq.storeBuffer: StoreBuffer step numUnissuedAccesses: 0
 254500: system.cpu0.execute.lsq: No matching memory response for inst: 0/2.1/4/13.13 pc: 0x102aa (c_li)
 255000: system.cpu0.execute.lsq.storeBuffer: StoreBuffer step numUnissuedAccesses: 0
 255500: system.cpu0.execute.lsq.storeBuffer: StoreBuffer step numUnissuedAccesses: 0
 256000: system.cpu0.execute.lsq.storeBuffer: StoreBuffer step numUnissuedAccesses: 0
 256500: system.cpu0.execute.lsq.storeBuffer: StoreBuffer step numUnissuedAccesses: 0
 257000: system.cpu0.execute.lsq.storeBuffer: StoreBuffer step numUnissuedAccesses: 0
 257500: system.cpu0.execute.lsq.storeBuffer: StoreBuffer step numUnissuedAccesses: 0
 258000: system.cpu0.execute.lsq.storeBuffer: StoreBuffer step numUnissuedAccesses: 0
 258500: system.cpu0.execute.lsq.storeBuffer: StoreBuffer step numUnissuedAccesses: 0
 259000: system.cpu0.execute.lsq.storeBuffer: StoreBuffer step numUnissuedAccesses: 0
 308000: system.cpu0.execute.lsq.storeBuffer: StoreBuffer step numUnissuedAccesses: 0
 308500: system.cpu0.execute.lsq.storeBuffer: StoreBuffer step numUnissuedAccesses: 0
 309000: system.cpu0.execute.lsq.storeBuffer: StoreBuffer step numUnissuedAccesses: 0
 309500: system.cpu0.execute.lsq.storeBuffer: StoreBuffer step numUnissuedAccesses: 0
 309500: system.cpu0.execute.lsq: No matching memory response for inst: 0/2.1/5/21.21 pc: 0x102c0 (c_add)
 310000: system.cpu0.execute.lsq.storeBuffer: StoreBuffer step numUnissuedAccesses: 0
 310000: system.cpu0.execute.lsq: No matching memory response for inst: 0/2.1/5/21.21 pc: 0x102c0 (c_add)
 310500: system.cpu0.execute.lsq.storeBuffer: StoreBuffer step numUnissuedAccesses: 0
 310500: system.cpu0.execute.lsq: Pushing request (store) addr: 0x11c80 size: 8 flags: 0x0 lineWidth : 0x40
 310500: system.cpu0.execute.lsq: Setting state from NotIssued to InTranslation for request: 0/2.1/5/22.22 pc: 0x102c2 (c_sd)
 310500: system.cpu0.execute.lsq: Submitting DTLB request
 310500: system.cpu0.execute.lsq: Received translation response for request: 0/2.1/5/22.22 pc: 0x102c2 (c_sd)
 310500: system.cpu0.execute.lsq: Setting state from InTranslation to Translated for request: 0/2.1/5/22.22 pc: 0x102c2 (c_sd)
 310500: system.cpu0.execute.lsq: Setting state from Translated to StoreToStoreBuffer for request: 0/2.1/5/22.22 pc: 0x102c2 (c_sd)
 310500: system.cpu0.execute.lsq: Moving store into transfers queue
 311000: system.cpu0.execute.lsq.storeBuffer: StoreBuffer step numUnissuedAccesses: 0
 311000: system.cpu0.execute.lsq: Pushing request (store) addr: 0x11c88 size: 8 flags: 0x0 lineWidth : 0x40
 311000: system.cpu0.execute.lsq: Setting state from NotIssued to InTranslation for request: 0/2.1/5/23.23 pc: 0x102c4 (c_sd)
 311000: system.cpu0.execute.lsq: Submitting DTLB request
 311000: system.cpu0.execute.lsq: Received translation response for request: 0/2.1/5/23.23 pc: 0x102c4 (c_sd)
 311000: system.cpu0.execute.lsq: Setting state from InTranslation to Translated for request: 0/2.1/5/23.23 pc: 0x102c4 (c_sd)
 311000: system.cpu0.execute.lsq: Setting state from Translated to StoreToStoreBuffer for request: 0/2.1/5/23.23 pc: 0x102c4 (c_sd)
 311000: system.cpu0.execute.lsq: Moving store into transfers queue
 311000: system.cpu0.execute.lsq: Found matching memory response for inst: 0/2.1/5/22.22 pc: 0x102c2 (c_sd)
 311000: system.cpu0.execute: Memory response inst: 0/2.1/5/22.22 pc: 0x102c2 (c_sd) addr: 0x1c80 size: 8
 311000: system.cpu0.execute.lsq: Sending store: 0/2.1/5/22.22 pc: 0x102c2 (c_sd) to store buffer
 311000: system.cpu0.execute.lsq.storeBuffer: Pushing store: 0x98cff80 into store buffer
 311000: system.cpu0.execute.lsq: Setting state from StoreToStoreBuffer to StoreInStoreBuffer for request: 0/2.1/5/22.22 pc: 0x102c2 (c_sd)
 311000: system.cpu0.execute.lsq: Found matching memory response for inst: 0/2.1/5/23.23 pc: 0x102c4 (c_sd)
 311500: system.cpu0.execute.lsq.storeBuffer: StoreBuffer step numUnissuedAccesses: 1
 311500: system.cpu0.execute.lsq.storeBuffer: Considering request: 0/2.1/5/22.22 pc: 0x102c2 (c_sd), sentAllPackets: 0 state: StoreInStoreBuffer
 311500: system.cpu0.execute.lsq.storeBuffer: Trying to send request: 0/2.1/5/22.22 pc: 0x102c2 (c_sd) to memory system
 311500: system.cpu0.execute.lsq: Trying to send request: 0/2.1/5/22.22 pc: 0x102c2 (c_sd) addr: 0x11c80
 311500: system.cpu0.execute.lsq: Sent data memory request
 311500: system.cpu0.execute.lsq: Setting state from StoreInStoreBuffer to StoreBufferIssuing for request: 0/2.1/5/22.22 pc: 0x102c2 (c_sd)
 311500: system.cpu0.execute.lsq: Found matching memory response for inst: 0/2.1/5/23.23 pc: 0x102c4 (c_sd)
 311500: system.cpu0.execute.lsq: Found matching memory response for inst: 0/2.1/5/23.23 pc: 0x102c4 (c_sd)
 311500: system.cpu0.execute: Memory response inst: 0/2.1/5/23.23 pc: 0x102c4 (c_sd) addr: 0x1c88 size: 8
 311500: system.cpu0.execute.lsq: Sending store: 0/2.1/5/23.23 pc: 0x102c4 (c_sd) to store buffer
 311500: system.cpu0.execute.lsq.storeBuffer: Pushing store: 0x98cfe80 into store buffer
 311500: system.cpu0.execute.lsq: Setting state from StoreToStoreBuffer to StoreInStoreBuffer for request: 0/2.1/5/23.23 pc: 0x102c4 (c_sd)
 311500: system.cpu0.execute.lsq: No matching memory response for inst: 0/2.1/5/24.24 pc: 0x102c6 (c_addi)
 312000: system.cpu0.execute.lsq.storeBuffer: StoreBuffer step numUnissuedAccesses: 1
 312000: system.cpu0.execute.lsq.storeBuffer: Considering request: 0/2.1/5/22.22 pc: 0x102c2 (c_sd), sentAllPackets: 1 state: StoreBufferIssuing
 312000: system.cpu0.execute.lsq.storeBuffer: Considering request: 0/2.1/5/23.23 pc: 0x102c4 (c_sd), sentAllPackets: 0 state: StoreInStoreBuffer
 312000: system.cpu0.execute.lsq.storeBuffer: Trying to send request: 0/2.1/5/23.23 pc: 0x102c4 (c_sd) to memory system
 312000: system.cpu0.execute.lsq: Trying to send request: 0/2.1/5/23.23 pc: 0x102c4 (c_sd) addr: 0x11c88
 312000: system.cpu0.execute.lsq: Sending data memory request - needs retry
 312000: system.cpu0.execute.lsq: Setting state from StoreInStoreBuffer to StoreBufferNeedsRetry for request: 0/2.1/5/23.23 pc: 0x102c4 (c_sd)
 312500: system.cpu0.execute.lsq.storeBuffer: StoreBuffer step numUnissuedAccesses: 1
 313000: system.cpu0.execute.lsq.storeBuffer: StoreBuffer step numUnissuedAccesses: 1
 313500: system.cpu0.execute.lsq.storeBuffer: StoreBuffer step numUnissuedAccesses: 1
 314000: system.cpu0.execute.lsq.storeBuffer: StoreBuffer step numUnissuedAccesses: 1
 358500: system.cpu0.execute.lsq: Received retry request
 358500: system.cpu0.execute.lsq: Setting state from StoreBufferNeedsRetry to StoreInStoreBuffer for request: 0/2.1/5/23.23 pc: 0x102c4 (c_sd)
 358500: system.cpu0.execute.lsq: Trying to send request: 0/2.1/5/23.23 pc: 0x102c4 (c_sd) addr: 0x11c88
 358500: system.cpu0.execute.lsq: Sending data memory request - needs retry
 358500: system.cpu0.execute.lsq: Setting state from StoreInStoreBuffer to StoreBufferNeedsRetry for request: 0/2.1/5/23.23 pc: 0x102c4 (c_sd)
 359500: system.cpu0.execute.lsq.storeBuffer: StoreBuffer step numUnissuedAccesses: 1
 360000: system.cpu0.execute.lsq.storeBuffer: StoreBuffer step numUnissuedAccesses: 1
 360500: system.cpu0.execute.lsq: Received retry request
 360500: system.cpu0.execute.lsq: Setting state from StoreBufferNeedsRetry to StoreInStoreBuffer for request: 0/2.1/5/23.23 pc: 0x102c4 (c_sd)
 360500: system.cpu0.execute.lsq: Trying to send request: 0/2.1/5/23.23 pc: 0x102c4 (c_sd) addr: 0x11c88
 360500: system.cpu0.execute.lsq: Sending data memory request - needs retry
 360500: system.cpu0.execute.lsq: Setting state from StoreInStoreBuffer to StoreBufferNeedsRetry for request: 0/2.1/5/23.23 pc: 0x102c4 (c_sd)
 360500: system.cpu0.execute.lsq.storeBuffer: StoreBuffer step numUnissuedAccesses: 1
 361500: system.cpu0.execute.lsq.storeBuffer: StoreBuffer step numUnissuedAccesses: 1
 362000: system.cpu0.execute.lsq.storeBuffer: StoreBuffer step numUnissuedAccesses: 1
 362500: system.cpu0.execute.lsq: Received retry request
 362500: system.cpu0.execute.lsq: Setting state from StoreBufferNeedsRetry to StoreInStoreBuffer for request: 0/2.1/5/23.23 pc: 0x102c4 (c_sd)
 362500: system.cpu0.execute.lsq: Trying to send request: 0/2.1/5/23.23 pc: 0x102c4 (c_sd) addr: 0x11c88
 362500: system.cpu0.execute.lsq: Sending data memory request - needs retry
 362500: system.cpu0.execute.lsq: Setting state from StoreInStoreBuffer to StoreBufferNeedsRetry for request: 0/2.1/5/23.23 pc: 0x102c4 (c_sd)
 362500: system.cpu0.execute.lsq.storeBuffer: StoreBuffer step numUnissuedAccesses: 1
 363000: system.cpu0.execute.lsq.storeBuffer: StoreBuffer step numUnissuedAccesses: 1
 363500: system.cpu0.execute.lsq: Received retry request
 363500: system.cpu0.execute.lsq: Setting state from StoreBufferNeedsRetry to StoreInStoreBuffer for request: 0/2.1/5/23.23 pc: 0x102c4 (c_sd)
 363500: system.cpu0.execute.lsq: Trying to send request: 0/2.1/5/23.23 pc: 0x102c4 (c_sd) addr: 0x11c88
 363500: system.cpu0.execute.lsq: Sent data memory request
 363500: system.cpu0.execute.lsq: Setting state from StoreInStoreBuffer to StoreBufferIssuing for request: 0/2.1/5/23.23 pc: 0x102c4 (c_sd)
 363500: system.cpu0.execute.lsq.storeBuffer: StoreBuffer step numUnissuedAccesses: 0
 363500: system.cpu0.execute.lsq: Pushing request (store) addr: 0x11c90 size: 8 flags: 0x0 lineWidth : 0x40
 363500: system.cpu0.execute.lsq: Setting state from NotIssued to InTranslation for request: 0/3.1/7/31.31 pc: 0x102c2 (c_sd)
 363500: system.cpu0.execute.lsq: Submitting DTLB request
 363500: system.cpu0.execute.lsq: Received translation response for request: 0/3.1/7/31.31 pc: 0x102c2 (c_sd)
 363500: system.cpu0.execute.lsq: Setting state from InTranslation to Translated for request: 0/3.1/7/31.31 pc: 0x102c2 (c_sd)
 363500: system.cpu0.execute.lsq: Setting state from Translated to StoreToStoreBuffer for request: 0/3.1/7/31.31 pc: 0x102c2 (c_sd)
 363500: system.cpu0.execute.lsq: Moving store into transfers queue
 363500: system.cpu0.execute.lsq: Found matching memory response for inst: 0/3.1/7/31.31 pc: 0x102c2 (c_sd)
 363500: system.cpu0.execute: Memory response inst: 0/3.1/7/31.31 pc: 0x102c2 (c_sd) addr: 0x1c90 size: 8
 363500: system.cpu0.execute.lsq: Sending store: 0/3.1/7/31.31 pc: 0x102c2 (c_sd) to store buffer
 363500: system.cpu0.execute.lsq.storeBuffer: Pushing store: 0x98cfd80 into store buffer
 363500: system.cpu0.execute.lsq: Setting state from StoreToStoreBuffer to StoreInStoreBuffer for request: 0/3.1/7/31.31 pc: 0x102c2 (c_sd)
 363501: system.cpu0.execute.lsq: Received response packet inst: 0/2.1/5/22.22 pc: 0x102c2 (c_sd) addr: 0x1c80 cmd: WriteResp
 363501: system.cpu0.execute.lsq: Retiring packet
 363501: system.cpu0.execute.lsq: Setting state from StoreBufferIssuing to Complete for request: 0/2.1/5/22.22 pc: 0x102c2 (c_sd)
 363501: system.cpu0.execute.lsq.storeBuffer: Deleting request: 0x98cff80 0x98cff80 0/2.1/5/22.22 pc: 0x102c2 (c_sd) from StoreBuffer
 364000: system.cpu0.execute.lsq.storeBuffer: StoreBuffer step numUnissuedAccesses: 1
 364000: system.cpu0.execute.lsq.storeBuffer: Considering request: 0/2.1/5/23.23 pc: 0x102c4 (c_sd), sentAllPackets: 1 state: StoreBufferIssuing
 364000: system.cpu0.execute.lsq.storeBuffer: Considering request: 0/3.1/7/31.31 pc: 0x102c2 (c_sd), sentAllPackets: 0 state: StoreInStoreBuffer
 364000: system.cpu0.execute.lsq.storeBuffer: Trying to send request: 0/3.1/7/31.31 pc: 0x102c2 (c_sd) to memory system
 364000: system.cpu0.execute.lsq: Trying to send request: 0/3.1/7/31.31 pc: 0x102c2 (c_sd) addr: 0x11c90
 364000: system.cpu0.execute.lsq: Sent data memory request
 364000: system.cpu0.execute.lsq: Setting state from StoreInStoreBuffer to StoreBufferIssuing for request: 0/3.1/7/31.31 pc: 0x102c2 (c_sd)
 364000: system.cpu0.execute.lsq: Pushing request (store) addr: 0x11c98 size: 8 flags: 0x0 lineWidth : 0x40
 364000: system.cpu0.execute.lsq: Setting state from NotIssued to InTranslation for request: 0/3.1/7/32.32 pc: 0x102c4 (c_sd)
 364000: system.cpu0.execute.lsq: Submitting DTLB request
 364000: system.cpu0.execute.lsq: Received translation response for request: 0/3.1/7/32.32 pc: 0x102c4 (c_sd)
 364000: system.cpu0.execute.lsq: Setting state from InTranslation to Translated for request: 0/3.1/7/32.32 pc: 0x102c4 (c_sd)
 364000: system.cpu0.execute.lsq: Setting state from Translated to StoreToStoreBuffer for request: 0/3.1/7/32.32 pc: 0x102c4 (c_sd)
 364000: system.cpu0.execute.lsq: Moving store into transfers queue
 364000: system.cpu0.execute.lsq: Found matching memory response for inst: 0/3.1/7/32.32 pc: 0x102c4 (c_sd)
 364000: system.cpu0.execute: Memory response inst: 0/3.1/7/32.32 pc: 0x102c4 (c_sd) addr: 0x1c98 size: 8
 364000: system.cpu0.execute.lsq: Sending store: 0/3.1/7/32.32 pc: 0x102c4 (c_sd) to store buffer
 364000: system.cpu0.execute.lsq.storeBuffer: Pushing store: 0x98cfe00 into store buffer
 364000: system.cpu0.execute.lsq: Setting state from StoreToStoreBuffer to StoreInStoreBuffer for request: 0/3.1/7/32.32 pc: 0x102c4 (c_sd)
 364000: system.cpu0.execute.lsq: No matching memory response for inst: 0/3.1/7/33.33 pc: 0x102c6 (c_addi)
 364001: system.cpu0.execute.lsq: Received response packet inst: 0/2.1/5/23.23 pc: 0x102c4 (c_sd) addr: 0x1c88 cmd: WriteResp
 364001: system.cpu0.execute.lsq: Retiring packet
 364001: system.cpu0.execute.lsq: Setting state from StoreBufferIssuing to Complete for request: 0/2.1/5/23.23 pc: 0x102c4 (c_sd)
 364001: system.cpu0.execute.lsq.storeBuffer: Deleting request: 0x98cfe80 0x98cfe80 0/2.1/5/23.23 pc: 0x102c4 (c_sd) from StoreBuffer
 364500: system.cpu0.execute.lsq.storeBuffer: StoreBuffer step numUnissuedAccesses: 1
 364500: system.cpu0.execute.lsq.storeBuffer: Considering request: 0/3.1/7/31.31 pc: 0x102c2 (c_sd), sentAllPackets: 1 state: StoreBufferIssuing
 364500: system.cpu0.execute.lsq.storeBuffer: Considering request: 0/3.1/7/32.32 pc: 0x102c4 (c_sd), sentAllPackets: 0 state: StoreInStoreBuffer
 364500: system.cpu0.execute.lsq.storeBuffer: Trying to send request: 0/3.1/7/32.32 pc: 0x102c4 (c_sd) to memory system
 364500: system.cpu0.execute.lsq: Trying to send request: 0/3.1/7/32.32 pc: 0x102c4 (c_sd) addr: 0x11c98
 364500: system.cpu0.execute.lsq: Sent data memory request
 364500: system.cpu0.execute.lsq: Setting state from StoreInStoreBuffer to StoreBufferIssuing for request: 0/3.1/7/32.32 pc: 0x102c4 (c_sd)
 364500: system.cpu0.execute.lsq: No matching memory response for inst: 0/3.1/7/33.33 pc: 0x102c6 (c_addi)
 364501: system.cpu0.execute.lsq: Received response packet inst: 0/3.1/7/31.31 pc: 0x102c2 (c_sd) addr: 0x1c90 cmd: WriteResp
 364501: system.cpu0.execute.lsq: Retiring packet
 364501: system.cpu0.execute.lsq: Setting state from StoreBufferIssuing to Complete for request: 0/3.1/7/31.31 pc: 0x102c2 (c_sd)
 364501: system.cpu0.execute.lsq.storeBuffer: Deleting request: 0x98cfd80 0x98cfd80 0/3.1/7/31.31 pc: 0x102c2 (c_sd) from StoreBuffer
 365000: system.cpu0.execute.lsq.storeBuffer: StoreBuffer step numUnissuedAccesses: 0
 365001: system.cpu0.execute.lsq: Received response packet inst: 0/3.1/7/32.32 pc: 0x102c4 (c_sd) addr: 0x1c98 cmd: WriteResp
 365001: system.cpu0.execute.lsq: Retiring packet
 365001: system.cpu0.execute.lsq: Setting state from StoreBufferIssuing to Complete for request: 0/3.1/7/32.32 pc: 0x102c4 (c_sd)
 365001: system.cpu0.execute.lsq.storeBuffer: Deleting request: 0x98cfe00 0x98cfe00 0/3.1/7/32.32 pc: 0x102c4 (c_sd) from StoreBuffer
 365500: system.cpu0.execute.lsq.storeBuffer: StoreBuffer step numUnissuedAccesses: 0
 366000: system.cpu0.execute.lsq.storeBuffer: StoreBuffer step numUnissuedAccesses: 0
 366500: system.cpu0.execute.lsq.storeBuffer: StoreBuffer step numUnissuedAccesses: 0
 367000: system.cpu0.execute.lsq.storeBuffer: StoreBuffer step numUnissuedAccesses: 0
 368000: system.cpu0.execute.lsq.storeBuffer: StoreBuffer step numUnissuedAccesses: 0
 368500: system.cpu0.execute.lsq.storeBuffer: StoreBuffer step numUnissuedAccesses: 0
 369000: system.cpu0.execute.lsq.storeBuffer: StoreBuffer step numUnissuedAccesses: 0
 369500: system.cpu0.execute.lsq.storeBuffer: StoreBuffer step numUnissuedAccesses: 0
 370000: system.cpu0.execute.lsq.storeBuffer: StoreBuffer step numUnissuedAccesses: 0
 370000: system.cpu0.execute.lsq: Pushing request (store) addr: 0x11ca0 size: 8 flags: 0x0 lineWidth : 0x40
 370000: system.cpu0.execute.lsq: Setting state from NotIssued to InTranslation for request: 0/4.1/9/40.40 pc: 0x102c2 (c_sd)
 370000: system.cpu0.execute.lsq: Submitting DTLB request
 370000: system.cpu0.execute.lsq: Received translation response for request: 0/4.1/9/40.40 pc: 0x102c2 (c_sd)
 370000: system.cpu0.execute.lsq: Setting state from InTranslation to Translated for request: 0/4.1/9/40.40 pc: 0x102c2 (c_sd)
 370000: system.cpu0.execute.lsq: Setting state from Translated to StoreToStoreBuffer for request: 0/4.1/9/40.40 pc: 0x102c2 (c_sd)
 370000: system.cpu0.execute.lsq: Moving store into transfers queue
 370000: system.cpu0.execute.lsq: Found matching memory response for inst: 0/4.1/9/40.40 pc: 0x102c2 (c_sd)
 370000: system.cpu0.execute: Memory response inst: 0/4.1/9/40.40 pc: 0x102c2 (c_sd) addr: 0x1ca0 size: 8
 370000: system.cpu0.execute.lsq: Sending store: 0/4.1/9/40.40 pc: 0x102c2 (c_sd) to store buffer
 370000: system.cpu0.execute.lsq.storeBuffer: Pushing store: 0x98cfe00 into store buffer
 370000: system.cpu0.execute.lsq: Setting state from StoreToStoreBuffer to StoreInStoreBuffer for request: 0/4.1/9/40.40 pc: 0x102c2 (c_sd)
 370500: system.cpu0.execute.lsq.storeBuffer: StoreBuffer step numUnissuedAccesses: 1
 370500: system.cpu0.execute.lsq.storeBuffer: Considering request: 0/4.1/9/40.40 pc: 0x102c2 (c_sd), sentAllPackets: 0 state: StoreInStoreBuffer
 370500: system.cpu0.execute.lsq.storeBuffer: Trying to send request: 0/4.1/9/40.40 pc: 0x102c2 (c_sd) to memory system
 370500: system.cpu0.execute.lsq: Trying to send request: 0/4.1/9/40.40 pc: 0x102c2 (c_sd) addr: 0x11ca0
 370500: system.cpu0.execute.lsq: Sent data memory request
 370500: system.cpu0.execute.lsq: Setting state from StoreInStoreBuffer to StoreBufferIssuing for request: 0/4.1/9/40.40 pc: 0x102c2 (c_sd)
 370500: system.cpu0.execute.lsq: Pushing request (store) addr: 0x11ca8 size: 8 flags: 0x0 lineWidth : 0x40
 370500: system.cpu0.execute.lsq: Setting state from NotIssued to InTranslation for request: 0/4.1/9/41.41 pc: 0x102c4 (c_sd)
 370500: system.cpu0.execute.lsq: Submitting DTLB request
 370500: system.cpu0.execute.lsq: Received translation response for request: 0/4.1/9/41.41 pc: 0x102c4 (c_sd)
 370500: system.cpu0.execute.lsq: Setting state from InTranslation to Translated for request: 0/4.1/9/41.41 pc: 0x102c4 (c_sd)
 370500: system.cpu0.execute.lsq: Setting state from Translated to StoreToStoreBuffer for request: 0/4.1/9/41.41 pc: 0x102c4 (c_sd)
 370500: system.cpu0.execute.lsq: Moving store into transfers queue
 370500: system.cpu0.execute.lsq: Found matching memory response for inst: 0/4.1/9/41.41 pc: 0x102c4 (c_sd)
 370500: system.cpu0.execute: Memory response inst: 0/4.1/9/41.41 pc: 0x102c4 (c_sd) addr: 0x1ca8 size: 8
 370500: system.cpu0.execute.lsq: Sending store: 0/4.1/9/41.41 pc: 0x102c4 (c_sd) to store buffer
 370500: system.cpu0.execute.lsq.storeBuffer: Pushing store: 0x33aad00 into store buffer
 370500: system.cpu0.execute.lsq: Setting state from StoreToStoreBuffer to StoreInStoreBuffer for request: 0/4.1/9/41.41 pc: 0x102c4 (c_sd)
 370500: system.cpu0.execute.lsq: No matching memory response for inst: 0/4.1/9/42.42 pc: 0x102c6 (c_addi)
 371000: system.cpu0.execute.lsq.storeBuffer: StoreBuffer step numUnissuedAccesses: 1
 371000: system.cpu0.execute.lsq.storeBuffer: Considering request: 0/4.1/9/40.40 pc: 0x102c2 (c_sd), sentAllPackets: 1 state: StoreBufferIssuing
 371000: system.cpu0.execute.lsq.storeBuffer: Considering request: 0/4.1/9/41.41 pc: 0x102c4 (c_sd), sentAllPackets: 0 state: StoreInStoreBuffer
 371000: system.cpu0.execute.lsq.storeBuffer: Trying to send request: 0/4.1/9/41.41 pc: 0x102c4 (c_sd) to memory system
 371000: system.cpu0.execute.lsq: Trying to send request: 0/4.1/9/41.41 pc: 0x102c4 (c_sd) addr: 0x11ca8
 371000: system.cpu0.execute.lsq: Sent data memory request
 371000: system.cpu0.execute.lsq: Setting state from StoreInStoreBuffer to StoreBufferIssuing for request: 0/4.1/9/41.41 pc: 0x102c4 (c_sd)
 371000: system.cpu0.execute.lsq: No matching memory response for inst: 0/4.1/9/42.42 pc: 0x102c6 (c_addi)
 371001: system.cpu0.execute.lsq: Received response packet inst: 0/4.1/9/40.40 pc: 0x102c2 (c_sd) addr: 0x1ca0 cmd: WriteResp
 371001: system.cpu0.execute.lsq: Retiring packet
 371001: system.cpu0.execute.lsq: Setting state from StoreBufferIssuing to Complete for request: 0/4.1/9/40.40 pc: 0x102c2 (c_sd)
 371001: system.cpu0.execute.lsq.storeBuffer: Deleting request: 0x98cfe00 0x98cfe00 0/4.1/9/40.40 pc: 0x102c2 (c_sd) from StoreBuffer
 371500: system.cpu0.execute.lsq.storeBuffer: StoreBuffer step numUnissuedAccesses: 0
 371501: system.cpu0.execute.lsq: Received response packet inst: 0/4.1/9/41.41 pc: 0x102c4 (c_sd) addr: 0x1ca8 cmd: WriteResp
 371501: system.cpu0.execute.lsq: Retiring packet
 371501: system.cpu0.execute.lsq: Setting state from StoreBufferIssuing to Complete for request: 0/4.1/9/41.41 pc: 0x102c4 (c_sd)
 371501: system.cpu0.execute.lsq.storeBuffer: Deleting request: 0x33aad00 0x33aad00 0/4.1/9/41.41 pc: 0x102c4 (c_sd) from StoreBuffer
 372000: system.cpu0.execute.lsq.storeBuffer: StoreBuffer step numUnissuedAccesses: 0
 372500: system.cpu0.execute.lsq.storeBuffer: StoreBuffer step numUnissuedAccesses: 0
 373000: system.cpu0.execute.lsq.storeBuffer: StoreBuffer step numUnissuedAccesses: 0
 373500: system.cpu0.execute.lsq.storeBuffer: StoreBuffer step numUnissuedAccesses: 0
 374000: system.cpu0.execute.lsq.storeBuffer: StoreBuffer step numUnissuedAccesses: 0
 375000: system.cpu0.execute.lsq.storeBuffer: StoreBuffer step numUnissuedAccesses: 0
 375500: system.cpu0.execute.lsq.storeBuffer: StoreBuffer step numUnissuedAccesses: 0
 376000: system.cpu0.execute.lsq.storeBuffer: StoreBuffer step numUnissuedAccesses: 0
 376500: system.cpu0.execute.lsq.storeBuffer: StoreBuffer step numUnissuedAccesses: 0
 376500: system.cpu0.execute.lsq: No matching memory response for inst: 0/5.1/11/50.50 pc: 0x102d0 (sub)
 377000: system.cpu0.execute.lsq.storeBuffer: StoreBuffer step numUnissuedAccesses: 0
 377000: system.cpu0.execute.lsq: No matching memory response for inst: 0/5.1/11/50.50 pc: 0x102d0 (sub)
 377500: system.cpu0.execute.lsq.storeBuffer: StoreBuffer step numUnissuedAccesses: 0
 378000: system.cpu0.execute.lsq.storeBuffer: StoreBuffer step numUnissuedAccesses: 0
 378500: system.cpu0.execute.lsq.storeBuffer: StoreBuffer step numUnissuedAccesses: 0
 379000: system.cpu0.execute.lsq.storeBuffer: StoreBuffer step numUnissuedAccesses: 0
 379500: system.cpu0.execute.lsq.storeBuffer: StoreBuffer step numUnissuedAccesses: 0
 379500: system.cpu0.execute.lsq: Pushing request (store) addr: 0x11cbe size: 1 flags: 0x0 lineWidth : 0x40
 379500: system.cpu0.execute.lsq: Setting state from NotIssued to InTranslation for request: 0/5.1/11/55.55 pc: 0x102e0 (sb)
 379500: system.cpu0.execute.lsq: Submitting DTLB request
 379500: system.cpu0.execute.lsq: Received translation response for request: 0/5.1/11/55.55 pc: 0x102e0 (sb)
 379500: system.cpu0.execute.lsq: Setting state from InTranslation to Translated for request: 0/5.1/11/55.55 pc: 0x102e0 (sb)
 379500: system.cpu0.execute.lsq: Setting state from Translated to StoreToStoreBuffer for request: 0/5.1/11/55.55 pc: 0x102e0 (sb)
 379500: system.cpu0.execute.lsq: Moving store into transfers queue
 380000: system.cpu0.execute.lsq.storeBuffer: StoreBuffer step numUnissuedAccesses: 0
 380000: system.cpu0.execute.lsq: Pushing request (store) addr: 0x11cbd size: 1 flags: 0x0 lineWidth : 0x40
 380000: system.cpu0.execute.lsq: Setting state from NotIssued to InTranslation for request: 0/5.1/11/56.56 pc: 0x102e4 (sb)
 380000: system.cpu0.execute.lsq: Submitting DTLB request
 380000: system.cpu0.execute.lsq: Received translation response for request: 0/5.1/11/56.56 pc: 0x102e4 (sb)
 380000: system.cpu0.execute.lsq: Setting state from InTranslation to Translated for request: 0/5.1/11/56.56 pc: 0x102e4 (sb)
 380000: system.cpu0.execute.lsq: Setting state from Translated to StoreToStoreBuffer for request: 0/5.1/11/56.56 pc: 0x102e4 (sb)
 380000: system.cpu0.execute.lsq: Moving store into transfers queue
 380000: system.cpu0.execute.lsq: Found matching memory response for inst: 0/5.1/11/55.55 pc: 0x102e0 (sb)
 380500: system.cpu0.execute.lsq.storeBuffer: StoreBuffer step numUnissuedAccesses: 0
 380500: system.cpu0.execute.lsq: Found matching memory response for inst: 0/5.1/11/55.55 pc: 0x102e0 (sb)
 380500: system.cpu0.execute.lsq: Found matching memory response for inst: 0/5.1/11/55.55 pc: 0x102e0 (sb)
 380500: system.cpu0.execute.lsq: Deleting store request: 0/5.1/11/55.55 pc: 0x102e0 (sb)
 380500: system.cpu0.execute.lsq: Found matching memory response for inst: 0/5.1/11/56.56 pc: 0x102e4 (sb)
 380500: system.cpu0.execute.lsq: Deleting store request: 0/5.1/11/56.56 pc: 0x102e4 (sb)
 381000: system.cpu0.execute.lsq.storeBuffer: StoreBuffer step numUnissuedAccesses: 0
 382000: system.cpu0.execute.lsq.storeBuffer: StoreBuffer step numUnissuedAccesses: 0
 382500: system.cpu0.execute.lsq.storeBuffer: StoreBuffer step numUnissuedAccesses: 0
 383000: system.cpu0.execute.lsq.storeBuffer: StoreBuffer step numUnissuedAccesses: 0
 383500: system.cpu0.execute.lsq.storeBuffer: StoreBuffer step numUnissuedAccesses: 0
 384000: system.cpu0.execute.lsq.storeBuffer: StoreBuffer step numUnissuedAccesses: 0
 384000: system.cpu0.execute.lsq: Pushing request (store) addr: 0x11cb7 size: 1 flags: 0x0 lineWidth : 0x40
 384000: system.cpu0.execute.lsq: Setting state from NotIssued to InTranslation for request: 0/6.1/13/60.60 pc: 0x102fc (sb)
 384000: system.cpu0.execute.lsq: Submitting DTLB request
 384000: system.cpu0.execute.lsq: Received translation response for request: 0/6.1/13/60.60 pc: 0x102fc (sb)
 384000: system.cpu0.execute.lsq: Setting state from InTranslation to Translated for request: 0/6.1/13/60.60 pc: 0x102fc (sb)
 384000: system.cpu0.execute.lsq: Setting state from Translated to StoreToStoreBuffer for request: 0/6.1/13/60.60 pc: 0x102fc (sb)
 384000: system.cpu0.execute.lsq: Moving store into transfers queue
 384000: system.cpu0.execute.lsq: Found matching memory response for inst: 0/6.1/13/60.60 pc: 0x102fc (sb)
 384000: system.cpu0.execute: Memory response inst: 0/6.1/13/60.60 pc: 0x102fc (sb) addr: 0x1cb7 size: 1
 384000: system.cpu0.execute.lsq: Sending store: 0/6.1/13/60.60 pc: 0x102fc (sb) to store buffer
 384000: system.cpu0.execute.lsq.storeBuffer: Pushing store: 0x33a8180 into store buffer
 384000: system.cpu0.execute.lsq: Setting state from StoreToStoreBuffer to StoreInStoreBuffer for request: 0/6.1/13/60.60 pc: 0x102fc (sb)
 384500: system.cpu0.execute.lsq.storeBuffer: StoreBuffer step numUnissuedAccesses: 1
 384500: system.cpu0.execute.lsq.storeBuffer: Considering request: 0/6.1/13/60.60 pc: 0x102fc (sb), sentAllPackets: 0 state: StoreInStoreBuffer
 384500: system.cpu0.execute.lsq.storeBuffer: Trying to send request: 0/6.1/13/60.60 pc: 0x102fc (sb) to memory system
 384500: system.cpu0.execute.lsq: Trying to send request: 0/6.1/13/60.60 pc: 0x102fc (sb) addr: 0x11cb7
 384500: system.cpu0.execute.lsq: Sent data memory request
 384500: system.cpu0.execute.lsq: Setting state from StoreInStoreBuffer to StoreBufferIssuing for request: 0/6.1/13/60.60 pc: 0x102fc (sb)
 385000: system.cpu0.execute.lsq.storeBuffer: StoreBuffer step numUnissuedAccesses: 0
 385001: system.cpu0.execute.lsq: Received response packet inst: 0/6.1/13/60.60 pc: 0x102fc (sb) addr: 0x1cb7 cmd: WriteResp
 385001: system.cpu0.execute.lsq: Retiring packet
 385001: system.cpu0.execute.lsq: Setting state from StoreBufferIssuing to Complete for request: 0/6.1/13/60.60 pc: 0x102fc (sb)
 385001: system.cpu0.execute.lsq.storeBuffer: Deleting request: 0x33a8180 0x33a8180 0/6.1/13/60.60 pc: 0x102fc (sb) from StoreBuffer
 385500: system.cpu0.execute.lsq.storeBuffer: StoreBuffer step numUnissuedAccesses: 0
 385500: system.cpu0.execute.lsq: Pushing request (store) addr: 0x11cb6 size: 1 flags: 0x0 lineWidth : 0x40
 385500: system.cpu0.execute.lsq: Setting state from NotIssued to InTranslation for request: 0/6.1/14/61.61 pc: 0x10300 (sb)
 385500: system.cpu0.execute.lsq: Submitting DTLB request
 385500: system.cpu0.execute.lsq: Received translation response for request: 0/6.1/14/61.61 pc: 0x10300 (sb)
 385500: system.cpu0.execute.lsq: Setting state from InTranslation to Translated for request: 0/6.1/14/61.61 pc: 0x10300 (sb)
 385500: system.cpu0.execute.lsq: Setting state from Translated to StoreToStoreBuffer for request: 0/6.1/14/61.61 pc: 0x10300 (sb)
 385500: system.cpu0.execute.lsq: Moving store into transfers queue
 385500: system.cpu0.execute.lsq: Found matching memory response for inst: 0/6.1/14/61.61 pc: 0x10300 (sb)
 385500: system.cpu0.execute: Memory response inst: 0/6.1/14/61.61 pc: 0x10300 (sb) addr: 0x1cb6 size: 1
 385500: system.cpu0.execute.lsq: Sending store: 0/6.1/14/61.61 pc: 0x10300 (sb) to store buffer
 385500: system.cpu0.execute.lsq.storeBuffer: Pushing store: 0x33a8300 into store buffer
 385500: system.cpu0.execute.lsq: Setting state from StoreToStoreBuffer to StoreInStoreBuffer for request: 0/6.1/14/61.61 pc: 0x10300 (sb)
 386000: system.cpu0.execute.lsq.storeBuffer: StoreBuffer step numUnissuedAccesses: 1
 386000: system.cpu0.execute.lsq.storeBuffer: Considering request: 0/6.1/14/61.61 pc: 0x10300 (sb), sentAllPackets: 0 state: StoreInStoreBuffer
 386000: system.cpu0.execute.lsq.storeBuffer: Trying to send request: 0/6.1/14/61.61 pc: 0x10300 (sb) to memory system
 386000: system.cpu0.execute.lsq: Trying to send request: 0/6.1/14/61.61 pc: 0x10300 (sb) addr: 0x11cb6
 386000: system.cpu0.execute.lsq: Sent data memory request
 386000: system.cpu0.execute.lsq: Setting state from StoreInStoreBuffer to StoreBufferIssuing for request: 0/6.1/14/61.61 pc: 0x10300 (sb)
 386000: system.cpu0.execute.lsq: Pushing request (store) addr: 0x11cb5 size: 1 flags: 0x0 lineWidth : 0x40
 386000: system.cpu0.execute.lsq: Setting state from NotIssued to InTranslation for request: 0/6.1/14/62.62 pc: 0x10304 (sb)
 386000: system.cpu0.execute.lsq: Submitting DTLB request
 386000: system.cpu0.execute.lsq: Received translation response for request: 0/6.1/14/62.62 pc: 0x10304 (sb)
 386000: system.cpu0.execute.lsq: Setting state from InTranslation to Translated for request: 0/6.1/14/62.62 pc: 0x10304 (sb)
 386000: system.cpu0.execute.lsq: Setting state from Translated to StoreToStoreBuffer for request: 0/6.1/14/62.62 pc: 0x10304 (sb)
 386000: system.cpu0.execute.lsq: Moving store into transfers queue
 386000: system.cpu0.execute.lsq: Found matching memory response for inst: 0/6.1/14/62.62 pc: 0x10304 (sb)
 386000: system.cpu0.execute: Memory response inst: 0/6.1/14/62.62 pc: 0x10304 (sb) addr: 0x1cb5 size: 1
 386000: system.cpu0.execute.lsq: Sending store: 0/6.1/14/62.62 pc: 0x10304 (sb) to store buffer
 386000: system.cpu0.execute.lsq.storeBuffer: Pushing store: 0x33a8480 into store buffer
 386000: system.cpu0.execute.lsq: Setting state from StoreToStoreBuffer to StoreInStoreBuffer for request: 0/6.1/14/62.62 pc: 0x10304 (sb)
 386500: system.cpu0.execute.lsq.storeBuffer: StoreBuffer step numUnissuedAccesses: 1
 386500: system.cpu0.execute.lsq.storeBuffer: Considering request: 0/6.1/14/61.61 pc: 0x10300 (sb), sentAllPackets: 1 state: StoreBufferIssuing
 386500: system.cpu0.execute.lsq.storeBuffer: Considering request: 0/6.1/14/62.62 pc: 0x10304 (sb), sentAllPackets: 0 state: StoreInStoreBuffer
 386500: system.cpu0.execute.lsq.storeBuffer: Trying to send request: 0/6.1/14/62.62 pc: 0x10304 (sb) to memory system
 386500: system.cpu0.execute.lsq: Trying to send request: 0/6.1/14/62.62 pc: 0x10304 (sb) addr: 0x11cb5
 386500: system.cpu0.execute.lsq: Sent data memory request
 386500: system.cpu0.execute.lsq: Setting state from StoreInStoreBuffer to StoreBufferIssuing for request: 0/6.1/14/62.62 pc: 0x10304 (sb)
 386500: system.cpu0.execute.lsq: Pushing request (store) addr: 0x11cb4 size: 1 flags: 0x0 lineWidth : 0x40
 386500: system.cpu0.execute.lsq: Setting state from NotIssued to InTranslation for request: 0/6.1/14/63.63 pc: 0x10308 (sb)
 386500: system.cpu0.execute.lsq: Submitting DTLB request
 386500: system.cpu0.execute.lsq: Received translation response for request: 0/6.1/14/63.63 pc: 0x10308 (sb)
 386500: system.cpu0.execute.lsq: Setting state from InTranslation to Translated for request: 0/6.1/14/63.63 pc: 0x10308 (sb)
 386500: system.cpu0.execute.lsq: Setting state from Translated to StoreToStoreBuffer for request: 0/6.1/14/63.63 pc: 0x10308 (sb)
 386500: system.cpu0.execute.lsq: Moving store into transfers queue
 386500: system.cpu0.execute.lsq: Found matching memory response for inst: 0/6.1/14/63.63 pc: 0x10308 (sb)
 386500: system.cpu0.execute: Memory response inst: 0/6.1/14/63.63 pc: 0x10308 (sb) addr: 0x1cb4 size: 1
 386500: system.cpu0.execute.lsq: Sending store: 0/6.1/14/63.63 pc: 0x10308 (sb) to store buffer
 386500: system.cpu0.execute.lsq.storeBuffer: Pushing store: 0x33a8580 into store buffer
 386500: system.cpu0.execute.lsq: Setting state from StoreToStoreBuffer to StoreInStoreBuffer for request: 0/6.1/14/63.63 pc: 0x10308 (sb)
 386501: system.cpu0.execute.lsq: Received response packet inst: 0/6.1/14/61.61 pc: 0x10300 (sb) addr: 0x1cb6 cmd: WriteResp
 386501: system.cpu0.execute.lsq: Retiring packet
 386501: system.cpu0.execute.lsq: Setting state from StoreBufferIssuing to Complete for request: 0/6.1/14/61.61 pc: 0x10300 (sb)
 386501: system.cpu0.execute.lsq.storeBuffer: Deleting request: 0x33a8300 0x33a8300 0/6.1/14/61.61 pc: 0x10300 (sb) from StoreBuffer
 387000: system.cpu0.execute.lsq.storeBuffer: StoreBuffer step numUnissuedAccesses: 1
 387000: system.cpu0.execute.lsq.storeBuffer: Considering request: 0/6.1/14/62.62 pc: 0x10304 (sb), sentAllPackets: 1 state: StoreBufferIssuing
 387000: system.cpu0.execute.lsq.storeBuffer: Considering request: 0/6.1/14/63.63 pc: 0x10308 (sb), sentAllPackets: 0 state: StoreInStoreBuffer
 387000: system.cpu0.execute.lsq.storeBuffer: Trying to send request: 0/6.1/14/63.63 pc: 0x10308 (sb) to memory system
 387000: system.cpu0.execute.lsq: Trying to send request: 0/6.1/14/63.63 pc: 0x10308 (sb) addr: 0x11cb4
 387000: system.cpu0.execute.lsq: Sent data memory request
 387000: system.cpu0.execute.lsq: Setting state from StoreInStoreBuffer to StoreBufferIssuing for request: 0/6.1/14/63.63 pc: 0x10308 (sb)
 387000: system.cpu0.execute.lsq: Pushing request (store) addr: 0x11cb3 size: 1 flags: 0x0 lineWidth : 0x40
 387000: system.cpu0.execute.lsq: Setting state from NotIssued to InTranslation for request: 0/6.1/14/64.64 pc: 0x1030c (sb)
 387000: system.cpu0.execute.lsq: Submitting DTLB request
 387000: system.cpu0.execute.lsq: Received translation response for request: 0/6.1/14/64.64 pc: 0x1030c (sb)
 387000: system.cpu0.execute.lsq: Setting state from InTranslation to Translated for request: 0/6.1/14/64.64 pc: 0x1030c (sb)
 387000: system.cpu0.execute.lsq: Setting state from Translated to StoreToStoreBuffer for request: 0/6.1/14/64.64 pc: 0x1030c (sb)
 387000: system.cpu0.execute.lsq: Moving store into transfers queue
 387000: system.cpu0.execute.lsq: Found matching memory response for inst: 0/6.1/14/64.64 pc: 0x1030c (sb)
 387000: system.cpu0.execute: Memory response inst: 0/6.1/14/64.64 pc: 0x1030c (sb) addr: 0x1cb3 size: 1
 387000: system.cpu0.execute.lsq: Sending store: 0/6.1/14/64.64 pc: 0x1030c (sb) to store buffer
 387000: system.cpu0.execute.lsq.storeBuffer: Pushing store: 0x33a8300 into store buffer
 387000: system.cpu0.execute.lsq: Setting state from StoreToStoreBuffer to StoreInStoreBuffer for request: 0/6.1/14/64.64 pc: 0x1030c (sb)
 387001: system.cpu0.execute.lsq: Received response packet inst: 0/6.1/14/62.62 pc: 0x10304 (sb) addr: 0x1cb5 cmd: WriteResp
 387001: system.cpu0.execute.lsq: Retiring packet
 387001: system.cpu0.execute.lsq: Setting state from StoreBufferIssuing to Complete for request: 0/6.1/14/62.62 pc: 0x10304 (sb)
 387001: system.cpu0.execute.lsq.storeBuffer: Deleting request: 0x33a8480 0x33a8480 0/6.1/14/62.62 pc: 0x10304 (sb) from StoreBuffer
 387500: system.cpu0.execute.lsq.storeBuffer: StoreBuffer step numUnissuedAccesses: 1
 387500: system.cpu0.execute.lsq.storeBuffer: Considering request: 0/6.1/14/63.63 pc: 0x10308 (sb), sentAllPackets: 1 state: StoreBufferIssuing
 387500: system.cpu0.execute.lsq.storeBuffer: Considering request: 0/6.1/14/64.64 pc: 0x1030c (sb), sentAllPackets: 0 state: StoreInStoreBuffer
 387500: system.cpu0.execute.lsq.storeBuffer: Trying to send request: 0/6.1/14/64.64 pc: 0x1030c (sb) to memory system
 387500: system.cpu0.execute.lsq: Trying to send request: 0/6.1/14/64.64 pc: 0x1030c (sb) addr: 0x11cb3
 387500: system.cpu0.execute.lsq: Sent data memory request
 387500: system.cpu0.execute.lsq: Setting state from StoreInStoreBuffer to StoreBufferIssuing for request: 0/6.1/14/64.64 pc: 0x1030c (sb)
 387500: system.cpu0.execute.lsq: Pushing request (store) addr: 0x11cb2 size: 1 flags: 0x0 lineWidth : 0x40
 387500: system.cpu0.execute.lsq: Setting state from NotIssued to InTranslation for request: 0/6.1/14/65.65 pc: 0x10310 (sb)
 387500: system.cpu0.execute.lsq: Submitting DTLB request
 387500: system.cpu0.execute.lsq: Received translation response for request: 0/6.1/14/65.65 pc: 0x10310 (sb)
 387500: system.cpu0.execute.lsq: Setting state from InTranslation to Translated for request: 0/6.1/14/65.65 pc: 0x10310 (sb)
 387500: system.cpu0.execute.lsq: Setting state from Translated to StoreToStoreBuffer for request: 0/6.1/14/65.65 pc: 0x10310 (sb)
 387500: system.cpu0.execute.lsq: Moving store into transfers queue
 387500: system.cpu0.execute.lsq: Found matching memory response for inst: 0/6.1/14/65.65 pc: 0x10310 (sb)
 387500: system.cpu0.execute: Memory response inst: 0/6.1/14/65.65 pc: 0x10310 (sb) addr: 0x1cb2 size: 1
 387500: system.cpu0.execute.lsq: Sending store: 0/6.1/14/65.65 pc: 0x10310 (sb) to store buffer
 387500: system.cpu0.execute.lsq.storeBuffer: Pushing store: 0x33a8480 into store buffer
 387500: system.cpu0.execute.lsq: Setting state from StoreToStoreBuffer to StoreInStoreBuffer for request: 0/6.1/14/65.65 pc: 0x10310 (sb)
 387501: system.cpu0.execute.lsq: Received response packet inst: 0/6.1/14/63.63 pc: 0x10308 (sb) addr: 0x1cb4 cmd: WriteResp
 387501: system.cpu0.execute.lsq: Retiring packet
 387501: system.cpu0.execute.lsq: Setting state from StoreBufferIssuing to Complete for request: 0/6.1/14/63.63 pc: 0x10308 (sb)
 387501: system.cpu0.execute.lsq.storeBuffer: Deleting request: 0x33a8580 0x33a8580 0/6.1/14/63.63 pc: 0x10308 (sb) from StoreBuffer
 388000: system.cpu0.execute.lsq.storeBuffer: StoreBuffer step numUnissuedAccesses: 1
 388000: system.cpu0.execute.lsq.storeBuffer: Considering request: 0/6.1/14/64.64 pc: 0x1030c (sb), sentAllPackets: 1 state: StoreBufferIssuing
 388000: system.cpu0.execute.lsq.storeBuffer: Considering request: 0/6.1/14/65.65 pc: 0x10310 (sb), sentAllPackets: 0 state: StoreInStoreBuffer
 388000: system.cpu0.execute.lsq.storeBuffer: Trying to send request: 0/6.1/14/65.65 pc: 0x10310 (sb) to memory system
 388000: system.cpu0.execute.lsq: Trying to send request: 0/6.1/14/65.65 pc: 0x10310 (sb) addr: 0x11cb2
 388000: system.cpu0.execute.lsq: Sent data memory request
 388000: system.cpu0.execute.lsq: Setting state from StoreInStoreBuffer to StoreBufferIssuing for request: 0/6.1/14/65.65 pc: 0x10310 (sb)
 388000: system.cpu0.execute.lsq: Pushing request (store) addr: 0x11cb1 size: 1 flags: 0x0 lineWidth : 0x40
 388000: system.cpu0.execute.lsq: Setting state from NotIssued to InTranslation for request: 0/6.1/14/66.66 pc: 0x10314 (sb)
 388000: system.cpu0.execute.lsq: Submitting DTLB request
 388000: system.cpu0.execute.lsq: Received translation response for request: 0/6.1/14/66.66 pc: 0x10314 (sb)
 388000: system.cpu0.execute.lsq: Setting state from InTranslation to Translated for request: 0/6.1/14/66.66 pc: 0x10314 (sb)
 388000: system.cpu0.execute.lsq: Setting state from Translated to StoreToStoreBuffer for request: 0/6.1/14/66.66 pc: 0x10314 (sb)
 388000: system.cpu0.execute.lsq: Moving store into transfers queue
 388000: system.cpu0.execute.lsq: Found matching memory response for inst: 0/6.1/14/66.66 pc: 0x10314 (sb)
 388000: system.cpu0.execute: Memory response inst: 0/6.1/14/66.66 pc: 0x10314 (sb) addr: 0x1cb1 size: 1
 388000: system.cpu0.execute.lsq: Sending store: 0/6.1/14/66.66 pc: 0x10314 (sb) to store buffer
 388000: system.cpu0.execute.lsq.storeBuffer: Pushing store: 0x33a8600 into store buffer
 388000: system.cpu0.execute.lsq: Setting state from StoreToStoreBuffer to StoreInStoreBuffer for request: 0/6.1/14/66.66 pc: 0x10314 (sb)
 388001: system.cpu0.execute.lsq: Received response packet inst: 0/6.1/14/64.64 pc: 0x1030c (sb) addr: 0x1cb3 cmd: WriteResp
 388001: system.cpu0.execute.lsq: Retiring packet
 388001: system.cpu0.execute.lsq: Setting state from StoreBufferIssuing to Complete for request: 0/6.1/14/64.64 pc: 0x1030c (sb)
 388001: system.cpu0.execute.lsq.storeBuffer: Deleting request: 0x33a8300 0x33a8300 0/6.1/14/64.64 pc: 0x1030c (sb) from StoreBuffer
 388500: system.cpu0.execute.lsq.storeBuffer: StoreBuffer step numUnissuedAccesses: 1
 388500: system.cpu0.execute.lsq.storeBuffer: Considering request: 0/6.1/14/65.65 pc: 0x10310 (sb), sentAllPackets: 1 state: StoreBufferIssuing
 388500: system.cpu0.execute.lsq.storeBuffer: Considering request: 0/6.1/14/66.66 pc: 0x10314 (sb), sentAllPackets: 0 state: StoreInStoreBuffer
 388500: system.cpu0.execute.lsq.storeBuffer: Trying to send request: 0/6.1/14/66.66 pc: 0x10314 (sb) to memory system
 388500: system.cpu0.execute.lsq: Trying to send request: 0/6.1/14/66.66 pc: 0x10314 (sb) addr: 0x11cb1
 388500: system.cpu0.execute.lsq: Sent data memory request
 388500: system.cpu0.execute.lsq: Setting state from StoreInStoreBuffer to StoreBufferIssuing for request: 0/6.1/14/66.66 pc: 0x10314 (sb)
 388500: system.cpu0.execute.lsq: Pushing request (store) addr: 0x11cb0 size: 1 flags: 0x0 lineWidth : 0x40
 388500: system.cpu0.execute.lsq: Setting state from NotIssued to InTranslation for request: 0/6.1/14/67.67 pc: 0x10318 (sb)
 388500: system.cpu0.execute.lsq: Submitting DTLB request
 388500: system.cpu0.execute.lsq: Received translation response for request: 0/6.1/14/67.67 pc: 0x10318 (sb)
 388500: system.cpu0.execute.lsq: Setting state from InTranslation to Translated for request: 0/6.1/14/67.67 pc: 0x10318 (sb)
 388500: system.cpu0.execute.lsq: Setting state from Translated to StoreToStoreBuffer for request: 0/6.1/14/67.67 pc: 0x10318 (sb)
 388500: system.cpu0.execute.lsq: Moving store into transfers queue
 388500: system.cpu0.execute.lsq: Found matching memory response for inst: 0/6.1/14/67.67 pc: 0x10318 (sb)
 388500: system.cpu0.execute: Memory response inst: 0/6.1/14/67.67 pc: 0x10318 (sb) addr: 0x1cb0 size: 1
 388500: system.cpu0.execute.lsq: Sending store: 0/6.1/14/67.67 pc: 0x10318 (sb) to store buffer
 388500: system.cpu0.execute.lsq.storeBuffer: Pushing store: 0x33a8300 into store buffer
 388500: system.cpu0.execute.lsq: Setting state from StoreToStoreBuffer to StoreInStoreBuffer for request: 0/6.1/14/67.67 pc: 0x10318 (sb)
 388500: system.cpu0.execute.lsq: No matching memory response for inst: 0/6.1/14/68.68 pc: 0x1031c (c_jr)
 388501: system.cpu0.execute.lsq: Received response packet inst: 0/6.1/14/65.65 pc: 0x10310 (sb) addr: 0x1cb2 cmd: WriteResp
 388501: system.cpu0.execute.lsq: Retiring packet
 388501: system.cpu0.execute.lsq: Setting state from StoreBufferIssuing to Complete for request: 0/6.1/14/65.65 pc: 0x10310 (sb)
 388501: system.cpu0.execute.lsq.storeBuffer: Deleting request: 0x33a8480 0x33a8480 0/6.1/14/65.65 pc: 0x10310 (sb) from StoreBuffer
 389000: system.cpu0.execute.lsq.storeBuffer: StoreBuffer step numUnissuedAccesses: 1
 389000: system.cpu0.execute.lsq.storeBuffer: Considering request: 0/6.1/14/66.66 pc: 0x10314 (sb), sentAllPackets: 1 state: StoreBufferIssuing
 389000: system.cpu0.execute.lsq.storeBuffer: Considering request: 0/6.1/14/67.67 pc: 0x10318 (sb), sentAllPackets: 0 state: StoreInStoreBuffer
 389000: system.cpu0.execute.lsq.storeBuffer: Trying to send request: 0/6.1/14/67.67 pc: 0x10318 (sb) to memory system
 389000: system.cpu0.execute.lsq: Trying to send request: 0/6.1/14/67.67 pc: 0x10318 (sb) addr: 0x11cb0
 389000: system.cpu0.execute.lsq: Sent data memory request
 389000: system.cpu0.execute.lsq: Setting state from StoreInStoreBuffer to StoreBufferIssuing for request: 0/6.1/14/67.67 pc: 0x10318 (sb)
 389000: system.cpu0.execute.lsq: No matching memory response for inst: 0/6.1/14/68.68 pc: 0x1031c (c_jr)
 389001: system.cpu0.execute.lsq: Received response packet inst: 0/6.1/14/66.66 pc: 0x10314 (sb) addr: 0x1cb1 cmd: WriteResp
 389001: system.cpu0.execute.lsq: Retiring packet
 389001: system.cpu0.execute.lsq: Setting state from StoreBufferIssuing to Complete for request: 0/6.1/14/66.66 pc: 0x10314 (sb)
 389001: system.cpu0.execute.lsq.storeBuffer: Deleting request: 0x33a8600 0x33a8600 0/6.1/14/66.66 pc: 0x10314 (sb) from StoreBuffer
 389500: system.cpu0.execute.lsq.storeBuffer: StoreBuffer step numUnissuedAccesses: 0
 389501: system.cpu0.execute.lsq: Received response packet inst: 0/6.1/14/67.67 pc: 0x10318 (sb) addr: 0x1cb0 cmd: WriteResp
 389501: system.cpu0.execute.lsq: Retiring packet
 389501: system.cpu0.execute.lsq: Setting state from StoreBufferIssuing to Complete for request: 0/6.1/14/67.67 pc: 0x10318 (sb)
 389501: system.cpu0.execute.lsq.storeBuffer: Deleting request: 0x33a8300 0x33a8300 0/6.1/14/67.67 pc: 0x10318 (sb) from StoreBuffer
 390000: system.cpu0.execute.lsq.storeBuffer: StoreBuffer step numUnissuedAccesses: 0
 390500: system.cpu0.execute.lsq.storeBuffer: StoreBuffer step numUnissuedAccesses: 0
 391000: system.cpu0.execute.lsq.storeBuffer: StoreBuffer step numUnissuedAccesses: 0
 437000: system.cpu0.execute.lsq.storeBuffer: StoreBuffer step numUnissuedAccesses: 0
 437500: system.cpu0.execute.lsq.storeBuffer: StoreBuffer step numUnissuedAccesses: 0
 438000: system.cpu0.execute.lsq.storeBuffer: StoreBuffer step numUnissuedAccesses: 0
 439000: system.cpu0.execute.lsq.storeBuffer: StoreBuffer step numUnissuedAccesses: 0
 439500: system.cpu0.execute.lsq.storeBuffer: StoreBuffer step numUnissuedAccesses: 0
 440000: system.cpu0.execute.lsq.storeBuffer: StoreBuffer step numUnissuedAccesses: 0
 440500: system.cpu0.execute.lsq.storeBuffer: StoreBuffer step numUnissuedAccesses: 0
 440500: system.cpu0.execute.lsq: No matching memory response for inst: 0/7.1/16/74.74 pc: 0x10108 (auipc)
 441000: system.cpu0.execute.lsq.storeBuffer: StoreBuffer step numUnissuedAccesses: 0
 441000: system.cpu0.execute.lsq: No matching memory response for inst: 0/7.1/16/74.74 pc: 0x10108 (auipc)
 441500: system.cpu0.execute.lsq.storeBuffer: StoreBuffer step numUnissuedAccesses: 0
 442000: system.cpu0.execute.lsq.storeBuffer: StoreBuffer step numUnissuedAccesses: 0
 442500: system.cpu0.execute.lsq.storeBuffer: StoreBuffer step numUnissuedAccesses: 0
 443000: system.cpu0.execute.lsq.storeBuffer: StoreBuffer step numUnissuedAccesses: 0
 443000: system.cpu0.execute.lsq: Pushing request (load) addr: 0x7fffffffffffff40 size: 4 flags: 0x0 lineWidth : 0x40
 443000: system.cpu0.execute.lsq: Setting state from NotIssued to InTranslation for request: 0/7.1/16/78.78 pc: 0x10118 (c_lwsp)
 443000: system.cpu0.execute.lsq: Submitting DTLB request
 443000: system.cpu0.execute.lsq: Received translation response for request: 0/7.1/16/78.78 pc: 0x10118 (c_lwsp)
 443000: system.cpu0.execute.lsq: Setting state from InTranslation to Translated for request: 0/7.1/16/78.78 pc: 0x10118 (c_lwsp)
 443000: system.cpu0.execute.lsq: No forwardable data from store buffer
 443000: system.cpu0.execute.lsq: Trying to send request: 0/7.1/16/78.78 pc: 0x10118 (c_lwsp) addr: 0x7fffffffffffff40
 443000: system.cpu0.execute.lsq: Sent data memory request
 443000: system.cpu0.execute.lsq: Setting state from Translated to RequestIssuing for request: 0/7.1/16/78.78 pc: 0x10118 (c_lwsp)
 443500: system.cpu0.execute.lsq.storeBuffer: StoreBuffer step numUnissuedAccesses: 0
 443500: system.cpu0.execute.lsq: No matching memory response for inst: 0/7.1/16/78.78 pc: 0x10118 (c_lwsp)
 443500: system.cpu0.execute.lsq: No matching memory response for inst: 0/7.1/16/78.78 pc: 0x10118 (c_lwsp)
 444000: system.cpu0.execute.lsq.storeBuffer: StoreBuffer step numUnissuedAccesses: 0
 444000: system.cpu0.execute.lsq: No matching memory response for inst: 0/7.1/16/78.78 pc: 0x10118 (c_lwsp)
 444000: system.cpu0.execute.lsq: No matching memory response for inst: 0/7.1/16/78.78 pc: 0x10118 (c_lwsp)
 495001: system.cpu0.execute.lsq: Received response packet inst: 0/7.1/16/78.78 pc: 0x10118 (c_lwsp) addr: 0x2f40 cmd: ReadResp
 495001: system.cpu0.execute.lsq: Retiring packet
 495001: system.cpu0.execute.lsq: Setting state from RequestIssuing to Complete for request: 0/7.1/16/78.78 pc: 0x10118 (c_lwsp)
 495001: system.cpu0.execute.lsq: Has outstanding packets?: 0 1
 496000: system.cpu0.execute.lsq.storeBuffer: StoreBuffer step numUnissuedAccesses: 0
 496000: system.cpu0.execute.lsq: Found matching memory response for inst: 0/7.1/16/78.78 pc: 0x10118 (c_lwsp)
 496000: system.cpu0.execute.lsq: Found matching memory response for inst: 0/7.1/16/78.78 pc: 0x10118 (c_lwsp)
 496000: system.cpu0.execute.lsq: Deleting load request: 0/7.1/16/78.78 pc: 0x10118 (c_lwsp)
 496500: system.cpu0.execute.lsq.storeBuffer: StoreBuffer step numUnissuedAccesses: 0
 498500: system.cpu0.execute.lsq.storeBuffer: StoreBuffer step numUnissuedAccesses: 0
 499000: system.cpu0.execute.lsq.storeBuffer: StoreBuffer step numUnissuedAccesses: 0
 499500: system.cpu0.execute.lsq.storeBuffer: StoreBuffer step numUnissuedAccesses: 0
 500000: system.cpu0.execute.lsq.storeBuffer: StoreBuffer step numUnissuedAccesses: 0
 500000: system.cpu0.execute.lsq: No matching memory response for inst: 0/8.1/18/82.82 pc: 0x101dc (c_mv)
 500500: system.cpu0.execute.lsq.storeBuffer: StoreBuffer step numUnissuedAccesses: 0
 500500: system.cpu0.execute.lsq: No matching memory response for inst: 0/8.1/18/82.82 pc: 0x101dc (c_mv)
 501000: system.cpu0.execute.lsq.storeBuffer: StoreBuffer step numUnissuedAccesses: 0
 501500: system.cpu0.execute.lsq.storeBuffer: StoreBuffer step numUnissuedAccesses: 0
 502000: system.cpu0.execute.lsq.storeBuffer: StoreBuffer step numUnissuedAccesses: 0
 502500: system.cpu0.execute.lsq.storeBuffer: StoreBuffer step numUnissuedAccesses: 0
 503000: system.cpu0.execute.lsq.storeBuffer: StoreBuffer step numUnissuedAccesses: 0
 503500: system.cpu0.execute.lsq.storeBuffer: StoreBuffer step numUnissuedAccesses: 0
 504000: system.cpu0.execute.lsq.storeBuffer: StoreBuffer step numUnissuedAccesses: 0
 504500: system.cpu0.execute.lsq.storeBuffer: StoreBuffer step numUnissuedAccesses: 0
 550000: system.cpu0.execute.lsq.storeBuffer: StoreBuffer step numUnissuedAccesses: 0
 550500: system.cpu0.execute.lsq.storeBuffer: StoreBuffer step numUnissuedAccesses: 0
 551000: system.cpu0.execute.lsq.storeBuffer: StoreBuffer step numUnissuedAccesses: 0
 552000: system.cpu0.execute.lsq.storeBuffer: StoreBuffer step numUnissuedAccesses: 0
 552500: system.cpu0.execute.lsq.storeBuffer: StoreBuffer step numUnissuedAccesses: 0
 553000: system.cpu0.execute.lsq.storeBuffer: StoreBuffer step numUnissuedAccesses: 0
 553500: system.cpu0.execute.lsq.storeBuffer: StoreBuffer step numUnissuedAccesses: 0
 553500: system.cpu0.execute.lsq: No matching memory response for inst: 0/9.1/20/92.92 pc: 0x10354 (c_lui)
 554000: system.cpu0.execute.lsq.storeBuffer: StoreBuffer step numUnissuedAccesses: 0
 554000: system.cpu0.execute.lsq: No matching memory response for inst: 0/9.1/20/92.92 pc: 0x10354 (c_lui)
 554500: system.cpu0.execute.lsq.storeBuffer: StoreBuffer step numUnissuedAccesses: 0
 555000: system.cpu0.execute.lsq.storeBuffer: StoreBuffer step numUnissuedAccesses: 0
 555000: system.cpu0.execute.lsq: Pushing request (load) addr: 0x11c68 size: 8 flags: 0x0 lineWidth : 0x40
 555000: system.cpu0.execute.lsq: Setting state from NotIssued to InTranslation for request: 0/9.1/20/93.93 pc: 0x10356 (ld)
 555000: system.cpu0.execute.lsq: Submitting DTLB request
 555000: system.cpu0.execute.lsq: Received translation response for request: 0/9.1/20/93.93 pc: 0x10356 (ld)
 555000: system.cpu0.execute.lsq: Setting state from InTranslation to Translated for request: 0/9.1/20/93.93 pc: 0x10356 (ld)
 555000: system.cpu0.execute.lsq: No forwardable data from store buffer
 555000: system.cpu0.execute.lsq: Trying to send request: 0/9.1/20/93.93 pc: 0x10356 (ld) addr: 0x11c68
 555000: system.cpu0.execute.lsq: Sent data memory request
 555000: system.cpu0.execute.lsq: Setting state from Translated to RequestIssuing for request: 0/9.1/20/93.93 pc: 0x10356 (ld)
 555000: system.cpu0.execute.lsq: No matching memory response for inst: 0/9.1/20/93.93 pc: 0x10356 (ld)
 555000: system.cpu0.execute.lsq: No matching memory response for inst: 0/9.1/20/93.93 pc: 0x10356 (ld)
 555500: system.cpu0.execute.lsq.storeBuffer: StoreBuffer step numUnissuedAccesses: 0
 555500: system.cpu0.execute.lsq: No matching memory response for inst: 0/9.1/20/93.93 pc: 0x10356 (ld)
 555500: system.cpu0.execute.lsq: No matching memory response for inst: 0/9.1/20/93.93 pc: 0x10356 (ld)
 556000: system.cpu0.execute.lsq.storeBuffer: StoreBuffer step numUnissuedAccesses: 0
 556000: system.cpu0.execute.lsq: No matching memory response for inst: 0/9.1/20/93.93 pc: 0x10356 (ld)
 556000: system.cpu0.execute.lsq: No matching memory response for inst: 0/9.1/20/93.93 pc: 0x10356 (ld)
 556500: system.cpu0.execute.lsq.storeBuffer: StoreBuffer step numUnissuedAccesses: 0
 556500: system.cpu0.execute.lsq: No matching memory response for inst: 0/9.1/20/93.93 pc: 0x10356 (ld)
 556500: system.cpu0.execute.lsq: No matching memory response for inst: 0/9.1/20/93.93 pc: 0x10356 (ld)
 557000: system.cpu0.execute.lsq.storeBuffer: StoreBuffer step numUnissuedAccesses: 0
 557000: system.cpu0.execute.lsq: No matching memory response for inst: 0/9.1/20/93.93 pc: 0x10356 (ld)
 557000: system.cpu0.execute.lsq: No matching memory response for inst: 0/9.1/20/93.93 pc: 0x10356 (ld)
 557500: system.cpu0.execute.lsq.storeBuffer: StoreBuffer step numUnissuedAccesses: 0
 557500: system.cpu0.execute.lsq: No matching memory response for inst: 0/9.1/20/93.93 pc: 0x10356 (ld)
 557500: system.cpu0.execute.lsq: No matching memory response for inst: 0/9.1/20/93.93 pc: 0x10356 (ld)
 558000: system.cpu0.execute.lsq.storeBuffer: StoreBuffer step numUnissuedAccesses: 0
 558000: system.cpu0.execute.lsq: No matching memory response for inst: 0/9.1/20/93.93 pc: 0x10356 (ld)
 558000: system.cpu0.execute.lsq: No matching memory response for inst: 0/9.1/20/93.93 pc: 0x10356 (ld)
 558500: system.cpu0.execute.lsq.storeBuffer: StoreBuffer step numUnissuedAccesses: 0
 558500: system.cpu0.execute.lsq: No matching memory response for inst: 0/9.1/20/93.93 pc: 0x10356 (ld)
 558500: system.cpu0.execute.lsq: No matching memory response for inst: 0/9.1/20/93.93 pc: 0x10356 (ld)
 559000: system.cpu0.execute.lsq.storeBuffer: StoreBuffer step numUnissuedAccesses: 0
 559000: system.cpu0.execute.lsq: No matching memory response for inst: 0/9.1/20/93.93 pc: 0x10356 (ld)
 559000: system.cpu0.execute.lsq: No matching memory response for inst: 0/9.1/20/93.93 pc: 0x10356 (ld)
 559500: system.cpu0.execute.lsq.storeBuffer: StoreBuffer step numUnissuedAccesses: 0
 559500: system.cpu0.execute.lsq: No matching memory response for inst: 0/9.1/20/93.93 pc: 0x10356 (ld)
 559500: system.cpu0.execute.lsq: No matching memory response for inst: 0/9.1/20/93.93 pc: 0x10356 (ld)
 605500: system.cpu0.execute.lsq.storeBuffer: StoreBuffer step numUnissuedAccesses: 0
 605500: system.cpu0.execute.lsq: No matching memory response for inst: 0/9.1/20/93.93 pc: 0x10356 (ld)
 605500: system.cpu0.execute.lsq: No matching memory response for inst: 0/9.1/20/93.93 pc: 0x10356 (ld)
 606000: system.cpu0.execute.lsq.storeBuffer: StoreBuffer step numUnissuedAccesses: 0
 606000: system.cpu0.execute.lsq: No matching memory response for inst: 0/9.1/20/93.93 pc: 0x10356 (ld)
 606000: system.cpu0.execute.lsq: No matching memory response for inst: 0/9.1/20/93.93 pc: 0x10356 (ld)
 606500: system.cpu0.execute.lsq.storeBuffer: StoreBuffer step numUnissuedAccesses: 0
 606500: system.cpu0.execute.lsq: No matching memory response for inst: 0/9.1/20/93.93 pc: 0x10356 (ld)
 606500: system.cpu0.execute.lsq: No matching memory response for inst: 0/9.1/20/93.93 pc: 0x10356 (ld)
 607000: system.cpu0.execute.lsq.storeBuffer: StoreBuffer step numUnissuedAccesses: 0
 607000: system.cpu0.execute.lsq: No matching memory response for inst: 0/9.1/20/93.93 pc: 0x10356 (ld)
 607000: system.cpu0.execute.lsq: No matching memory response for inst: 0/9.1/20/93.93 pc: 0x10356 (ld)
 607001: system.cpu0.execute.lsq: Received response packet inst: 0/9.1/20/93.93 pc: 0x10356 (ld) addr: 0x1c68 cmd: ReadResp
 607001: system.cpu0.execute.lsq: Retiring packet
 607001: system.cpu0.execute.lsq: Setting state from RequestIssuing to Complete for request: 0/9.1/20/93.93 pc: 0x10356 (ld)
 607001: system.cpu0.execute.lsq: Has outstanding packets?: 0 1
 608000: system.cpu0.execute.lsq.storeBuffer: StoreBuffer step numUnissuedAccesses: 0
 608000: system.cpu0.execute.lsq: Found matching memory response for inst: 0/9.1/20/93.93 pc: 0x10356 (ld)
 608000: system.cpu0.execute.lsq: Found matching memory response for inst: 0/9.1/20/93.93 pc: 0x10356 (ld)
 608000: system.cpu0.execute: Memory response inst: 0/9.1/20/93.93 pc: 0x10356 (ld) addr: 0x1c68 size: 8
 608000: system.cpu0.execute: Memory data[0]: 0x20
 608000: system.cpu0.execute.lsq: Deleting load request: 0/9.1/20/93.93 pc: 0x10356 (ld)
 608000: system.cpu0.execute.lsq: Pushing request (load) addr: 0x11718 size: 8 flags: 0x0 lineWidth : 0x40
 608000: system.cpu0.execute.lsq: Setting state from NotIssued to InTranslation for request: 0/9.1/20/95.95 pc: 0x1035c (ld)
 608000: system.cpu0.execute.lsq: Submitting DTLB request
 608000: system.cpu0.execute.lsq: Received translation response for request: 0/9.1/20/95.95 pc: 0x1035c (ld)
 608000: system.cpu0.execute.lsq: Setting state from InTranslation to Translated for request: 0/9.1/20/95.95 pc: 0x1035c (ld)
 608000: system.cpu0.execute.lsq: No forwardable data from store buffer
 608000: system.cpu0.execute.lsq: Trying to send request: 0/9.1/20/95.95 pc: 0x1035c (ld) addr: 0x11718
 608000: system.cpu0.execute.lsq: Sent data memory request
 608000: system.cpu0.execute.lsq: Setting state from Translated to RequestIssuing for request: 0/9.1/20/95.95 pc: 0x1035c (ld)
 608000: system.cpu0.execute.lsq: No matching memory response for inst: 0/9.1/20/95.95 pc: 0x1035c (ld)
 608500: system.cpu0.execute.lsq.storeBuffer: StoreBuffer step numUnissuedAccesses: 0
 608500: system.cpu0.execute.lsq: No matching memory response for inst: 0/9.1/20/95.95 pc: 0x1035c (ld)
 608500: system.cpu0.execute.lsq: No matching memory response for inst: 0/9.1/20/95.95 pc: 0x1035c (ld)
 658001: system.cpu0.execute.lsq: Received response packet inst: 0/9.1/20/95.95 pc: 0x1035c (ld) addr: 0x1718 cmd: ReadResp
 658001: system.cpu0.execute.lsq: Retiring packet
 658001: system.cpu0.execute.lsq: Setting state from RequestIssuing to Complete for request: 0/9.1/20/95.95 pc: 0x1035c (ld)
 658001: system.cpu0.execute.lsq: Has outstanding packets?: 0 1
 659000: system.cpu0.execute.lsq.storeBuffer: StoreBuffer step numUnissuedAccesses: 0
 659000: system.cpu0.execute.lsq: Found matching memory response for inst: 0/9.1/20/95.95 pc: 0x1035c (ld)
 659000: system.cpu0.execute.lsq: Found matching memory response for inst: 0/9.1/20/95.95 pc: 0x1035c (ld)
 659000: system.cpu0.execute: Memory response inst: 0/9.1/20/95.95 pc: 0x1035c (ld) addr: 0x1718 size: 8
 659000: system.cpu0.execute: Memory data[0]: 0x0
 659000: system.cpu0.execute.lsq: Deleting load request: 0/9.1/20/95.95 pc: 0x1035c (ld)
 659500: system.cpu0.execute.lsq.storeBuffer: StoreBuffer step numUnissuedAccesses: 0
 659500: system.cpu0.execute.lsq: Pushing request (store) addr: 0x11718 size: 8 flags: 0x0 lineWidth : 0x40
 659500: system.cpu0.execute.lsq: Setting state from NotIssued to InTranslation for request: 0/9.1/20/98.98 pc: 0x10366 (sd)
 659500: system.cpu0.execute.lsq: Submitting DTLB request
 659500: system.cpu0.execute.lsq: Received translation response for request: 0/9.1/20/98.98 pc: 0x10366 (sd)
 659500: system.cpu0.execute.lsq: Setting state from InTranslation to Translated for request: 0/9.1/20/98.98 pc: 0x10366 (sd)
 659500: system.cpu0.execute.lsq: Setting state from Translated to StoreToStoreBuffer for request: 0/9.1/20/98.98 pc: 0x10366 (sd)
 659500: system.cpu0.execute.lsq: Moving store into transfers queue
 659500: system.cpu0.execute.lsq: Found matching memory response for inst: 0/9.1/20/98.98 pc: 0x10366 (sd)
 659500: system.cpu0.execute: Memory response inst: 0/9.1/20/98.98 pc: 0x10366 (sd) addr: 0x1718 size: 8
 659500: system.cpu0.execute.lsq: Sending store: 0/9.1/20/98.98 pc: 0x10366 (sd) to store buffer
 659500: system.cpu0.execute.lsq.storeBuffer: Pushing store: 0x33aae00 into store buffer
 659500: system.cpu0.execute.lsq: Setting state from StoreToStoreBuffer to StoreInStoreBuffer for request: 0/9.1/20/98.98 pc: 0x10366 (sd)
 660000: system.cpu0.execute.lsq.storeBuffer: StoreBuffer step numUnissuedAccesses: 1
 660000: system.cpu0.execute.lsq.storeBuffer: Considering request: 0/9.1/20/98.98 pc: 0x10366 (sd), sentAllPackets: 0 state: StoreInStoreBuffer
 660000: system.cpu0.execute.lsq.storeBuffer: Trying to send request: 0/9.1/20/98.98 pc: 0x10366 (sd) to memory system
 660000: system.cpu0.execute.lsq: Trying to send request: 0/9.1/20/98.98 pc: 0x10366 (sd) addr: 0x11718
 660000: system.cpu0.execute.lsq: Sent data memory request
 660000: system.cpu0.execute.lsq: Setting state from StoreInStoreBuffer to StoreBufferIssuing for request: 0/9.1/20/98.98 pc: 0x10366 (sd)
 660000: system.cpu0.execute.lsq: Pushing request (load) addr: 0x11728 size: 4 flags: 0x0 lineWidth : 0x40
 660000: system.cpu0.execute.lsq: Setting state from NotIssued to InTranslation for request: 0/9.1/20/99.99 pc: 0x1036a (c_lw)
 660000: system.cpu0.execute.lsq: Submitting DTLB request
 660000: system.cpu0.execute.lsq: Received translation response for request: 0/9.1/20/99.99 pc: 0x1036a (c_lw)
 660000: system.cpu0.execute.lsq: Setting state from InTranslation to Translated for request: 0/9.1/20/99.99 pc: 0x1036a (c_lw)
 660000: system.cpu0.execute.lsq: No forwardable data from store buffer
 660000: system.cpu0.execute.lsq: Trying to send request: 0/9.1/20/99.99 pc: 0x1036a (c_lw) addr: 0x11728
 660000: system.cpu0.execute.lsq: Sending data memory request - needs retry
 660000: system.cpu0.execute.lsq: Setting state from Translated to RequestNeedsRetry for request: 0/9.1/20/99.99 pc: 0x1036a (c_lw)
 660000: system.cpu0.execute.lsq: No matching memory response for inst: 0/9.1/20/99.99 pc: 0x1036a (c_lw)
 660000: system.cpu0.execute.lsq: No matching memory response for inst: 0/9.1/20/99.99 pc: 0x1036a (c_lw)
 660500: system.cpu0.execute.lsq: Received retry request
 660500: system.cpu0.execute.lsq: Setting state from RequestNeedsRetry to Translated for request: 0/9.1/20/99.99 pc: 0x1036a (c_lw)
 660500: system.cpu0.execute.lsq: Trying to send request: 0/9.1/20/99.99 pc: 0x1036a (c_lw) addr: 0x11728
 660500: system.cpu0.execute.lsq: Sent data memory request
 660500: system.cpu0.execute.lsq: Setting state from Translated to RequestIssuing for request: 0/9.1/20/99.99 pc: 0x1036a (c_lw)
 660500: system.cpu0.execute.lsq.storeBuffer: StoreBuffer step numUnissuedAccesses: 0
 660500: system.cpu0.execute.lsq: No matching memory response for inst: 0/9.1/20/99.99 pc: 0x1036a (c_lw)
 660500: system.cpu0.execute.lsq: No matching memory response for inst: 0/9.1/20/99.99 pc: 0x1036a (c_lw)
 660501: system.cpu0.execute.lsq: Received response packet inst: 0/9.1/20/98.98 pc: 0x10366 (sd) addr: 0x1718 cmd: WriteResp
 660501: system.cpu0.execute.lsq: Retiring packet
 660501: system.cpu0.execute.lsq: Setting state from StoreBufferIssuing to Complete for request: 0/9.1/20/98.98 pc: 0x10366 (sd)
 660501: system.cpu0.execute.lsq.storeBuffer: Deleting request: 0x33aae00 0x33aae00 0/9.1/20/98.98 pc: 0x10366 (sd) from StoreBuffer
 661000: system.cpu0.execute.lsq.storeBuffer: StoreBuffer step numUnissuedAccesses: 0
 661000: system.cpu0.execute.lsq: No matching memory response for inst: 0/9.1/20/99.99 pc: 0x1036a (c_lw)
 661000: system.cpu0.execute.lsq: No matching memory response for inst: 0/9.1/20/99.99 pc: 0x1036a (c_lw)
 661001: system.cpu0.execute.lsq: Received response packet inst: 0/9.1/20/99.99 pc: 0x1036a (c_lw) addr: 0x1728 cmd: ReadResp
 661001: system.cpu0.execute.lsq: Retiring packet
 661001: system.cpu0.execute.lsq: Setting state from RequestIssuing to Complete for request: 0/9.1/20/99.99 pc: 0x1036a (c_lw)
 661001: system.cpu0.execute.lsq: Has outstanding packets?: 0 1
 661500: system.cpu0.execute.lsq.storeBuffer: StoreBuffer step numUnissuedAccesses: 0
 661500: system.cpu0.execute.lsq: Found matching memory response for inst: 0/9.1/20/99.99 pc: 0x1036a (c_lw)
 661500: system.cpu0.execute.lsq: Found matching memory response for inst: 0/9.1/20/99.99 pc: 0x1036a (c_lw)
 661500: system.cpu0.execute: Memory response inst: 0/9.1/20/99.99 pc: 0x1036a (c_lw) addr: 0x1728 size: 4
 661500: system.cpu0.execute: Memory data[0]: 0x0
 661500: system.cpu0.execute.lsq: Deleting load request: 0/9.1/20/99.99 pc: 0x1036a (c_lw)
 662000: system.cpu0.execute.lsq.storeBuffer: StoreBuffer step numUnissuedAccesses: 0
 662500: system.cpu0.execute.lsq.storeBuffer: StoreBuffer step numUnissuedAccesses: 0
 663000: system.cpu0.execute.lsq.storeBuffer: StoreBuffer step numUnissuedAccesses: 0
 663500: system.cpu0.execute.lsq.storeBuffer: StoreBuffer step numUnissuedAccesses: 0
 664000: system.cpu0.execute.lsq.storeBuffer: StoreBuffer step numUnissuedAccesses: 0
 664500: system.cpu0.execute.lsq.storeBuffer: StoreBuffer step numUnissuedAccesses: 0
 665000: system.cpu0.execute.lsq.storeBuffer: StoreBuffer step numUnissuedAccesses: 0
 665500: system.cpu0.execute.lsq.storeBuffer: StoreBuffer step numUnissuedAccesses: 0
 666000: system.cpu0.execute.lsq.storeBuffer: StoreBuffer step numUnissuedAccesses: 0
 666000: system.cpu0.execute.lsq: No matching memory response for inst: 0/10.1/23/117.117 pc: 0x103a8 (addiw)
 666500: system.cpu0.execute.lsq.storeBuffer: StoreBuffer step numUnissuedAccesses: 0
 666500: system.cpu0.execute.lsq: No matching memory response for inst: 0/10.1/23/117.117 pc: 0x103a8 (addiw)
 667000: system.cpu0.execute.lsq.storeBuffer: StoreBuffer step numUnissuedAccesses: 0
 667500: system.cpu0.execute.lsq.storeBuffer: StoreBuffer step numUnissuedAccesses: 0
 668000: system.cpu0.execute.lsq.storeBuffer: StoreBuffer step numUnissuedAccesses: 0
 668000: system.cpu0.execute.lsq: Pushing request (store) addr: 0x11728 size: 4 flags: 0x0 lineWidth : 0x40
 668000: system.cpu0.execute.lsq: Setting state from NotIssued to InTranslation for request: 0/10.1/23/120.120 pc: 0x103b0 (c_sw)
 668000: system.cpu0.execute.lsq: Submitting DTLB request
 668000: system.cpu0.execute.lsq: Received translation response for request: 0/10.1/23/120.120 pc: 0x103b0 (c_sw)
 668000: system.cpu0.execute.lsq: Setting state from InTranslation to Translated for request: 0/10.1/23/120.120 pc: 0x103b0 (c_sw)
 668000: system.cpu0.execute.lsq: Setting state from Translated to StoreToStoreBuffer for request: 0/10.1/23/120.120 pc: 0x103b0 (c_sw)
 668000: system.cpu0.execute.lsq: Moving store into transfers queue
 668500: system.cpu0.execute.lsq.storeBuffer: StoreBuffer step numUnissuedAccesses: 0
 668500: system.cpu0.execute.lsq: Found matching memory response for inst: 0/10.1/23/120.120 pc: 0x103b0 (c_sw)
 668500: system.cpu0.execute: Memory response inst: 0/10.1/23/120.120 pc: 0x103b0 (c_sw) addr: 0x1728 size: 4
 668500: system.cpu0.execute.lsq: Sending store: 0/10.1/23/120.120 pc: 0x103b0 (c_sw) to store buffer
 668500: system.cpu0.execute.lsq.storeBuffer: Pushing store: 0x98cff00 into store buffer
 668500: system.cpu0.execute.lsq: Setting state from StoreToStoreBuffer to StoreInStoreBuffer for request: 0/10.1/23/120.120 pc: 0x103b0 (c_sw)
 668500: system.cpu0.execute.lsq: No matching memory response for inst: 0/10.1/23/121.121 pc: 0x103b2 (c_add)
 669000: system.cpu0.execute.lsq.storeBuffer: StoreBuffer step numUnissuedAccesses: 1
 669000: system.cpu0.execute.lsq.storeBuffer: Considering request: 0/10.1/23/120.120 pc: 0x103b0 (c_sw), sentAllPackets: 0 state: StoreInStoreBuffer
 669000: system.cpu0.execute.lsq.storeBuffer: Trying to send request: 0/10.1/23/120.120 pc: 0x103b0 (c_sw) to memory system
 669000: system.cpu0.execute.lsq: Trying to send request: 0/10.1/23/120.120 pc: 0x103b0 (c_sw) addr: 0x11728
 669000: system.cpu0.execute.lsq: Sent data memory request
 669000: system.cpu0.execute.lsq: Setting state from StoreInStoreBuffer to StoreBufferIssuing for request: 0/10.1/23/120.120 pc: 0x103b0 (c_sw)
 669500: system.cpu0.execute.lsq.storeBuffer: StoreBuffer step numUnissuedAccesses: 0
 669500: system.cpu0.execute.lsq: Pushing request (store) addr: 0x11730 size: 8 flags: 0x0 lineWidth : 0x40
 669500: system.cpu0.execute.lsq: Setting state from NotIssued to InTranslation for request: 0/10.1/23/122.122 pc: 0x103b4 (c_sd)
 669500: system.cpu0.execute.lsq: Submitting DTLB request
 669500: system.cpu0.execute.lsq: Received translation response for request: 0/10.1/23/122.122 pc: 0x103b4 (c_sd)
 669500: system.cpu0.execute.lsq: Setting state from InTranslation to Translated for request: 0/10.1/23/122.122 pc: 0x103b4 (c_sd)
 669500: system.cpu0.execute.lsq: Setting state from Translated to StoreToStoreBuffer for request: 0/10.1/23/122.122 pc: 0x103b4 (c_sd)
 669500: system.cpu0.execute.lsq: Moving store into transfers queue
 669500: system.cpu0.execute.lsq: Found matching memory response for inst: 0/10.1/23/122.122 pc: 0x103b4 (c_sd)
 669500: system.cpu0.execute: Memory response inst: 0/10.1/23/122.122 pc: 0x103b4 (c_sd) addr: 0x1730 size: 8
 669500: system.cpu0.execute.lsq: Sending store: 0/10.1/23/122.122 pc: 0x103b4 (c_sd) to store buffer
 669500: system.cpu0.execute.lsq.storeBuffer: Pushing store: 0x98cfe80 into store buffer
 669500: system.cpu0.execute.lsq: Setting state from StoreToStoreBuffer to StoreInStoreBuffer for request: 0/10.1/23/122.122 pc: 0x103b4 (c_sd)
 669500: system.cpu0.execute.lsq: No matching memory response for inst: 0/10.1/23/123.123 pc: 0x103b6 (c_li)
 669501: system.cpu0.execute.lsq: Received response packet inst: 0/10.1/23/120.120 pc: 0x103b0 (c_sw) addr: 0x1728 cmd: WriteResp
 669501: system.cpu0.execute.lsq: Retiring packet
 669501: system.cpu0.execute.lsq: Setting state from StoreBufferIssuing to Complete for request: 0/10.1/23/120.120 pc: 0x103b0 (c_sw)
 669501: system.cpu0.execute.lsq.storeBuffer: Deleting request: 0x98cff00 0x98cff00 0/10.1/23/120.120 pc: 0x103b0 (c_sw) from StoreBuffer
 670000: system.cpu0.execute.lsq.storeBuffer: StoreBuffer step numUnissuedAccesses: 1
 670000: system.cpu0.execute.lsq.storeBuffer: Considering request: 0/10.1/23/122.122 pc: 0x103b4 (c_sd), sentAllPackets: 0 state: StoreInStoreBuffer
 670000: system.cpu0.execute.lsq.storeBuffer: Trying to send request: 0/10.1/23/122.122 pc: 0x103b4 (c_sd) to memory system
 670000: system.cpu0.execute.lsq: Trying to send request: 0/10.1/23/122.122 pc: 0x103b4 (c_sd) addr: 0x11730
 670000: system.cpu0.execute.lsq: Sent data memory request
 670000: system.cpu0.execute.lsq: Setting state from StoreInStoreBuffer to StoreBufferIssuing for request: 0/10.1/23/122.122 pc: 0x103b4 (c_sd)
 670000: system.cpu0.execute.lsq: No matching memory response for inst: 0/10.1/23/123.123 pc: 0x103b6 (c_li)
 670500: system.cpu0.execute.lsq.storeBuffer: StoreBuffer step numUnissuedAccesses: 0
 670501: system.cpu0.execute.lsq: Received response packet inst: 0/10.1/23/122.122 pc: 0x103b4 (c_sd) addr: 0x1730 cmd: WriteResp
 670501: system.cpu0.execute.lsq: Retiring packet
 670501: system.cpu0.execute.lsq: Setting state from StoreBufferIssuing to Complete for request: 0/10.1/23/122.122 pc: 0x103b4 (c_sd)
 670501: system.cpu0.execute.lsq.storeBuffer: Deleting request: 0x98cfe80 0x98cfe80 0/10.1/23/122.122 pc: 0x103b4 (c_sd) from StoreBuffer
 671000: system.cpu0.execute.lsq.storeBuffer: StoreBuffer step numUnissuedAccesses: 0
 671500: system.cpu0.execute.lsq.storeBuffer: StoreBuffer step numUnissuedAccesses: 0
 672000: system.cpu0.execute.lsq.storeBuffer: StoreBuffer step numUnissuedAccesses: 0
 672500: system.cpu0.execute.lsq.storeBuffer: StoreBuffer step numUnissuedAccesses: 0
 721000: system.cpu0.execute.lsq.storeBuffer: StoreBuffer step numUnissuedAccesses: 0
 721500: system.cpu0.execute.lsq.storeBuffer: StoreBuffer step numUnissuedAccesses: 0
 722000: system.cpu0.execute.lsq.storeBuffer: StoreBuffer step numUnissuedAccesses: 0
 723000: system.cpu0.execute.lsq.storeBuffer: StoreBuffer step numUnissuedAccesses: 0
 723500: system.cpu0.execute.lsq.storeBuffer: StoreBuffer step numUnissuedAccesses: 0
 724000: system.cpu0.execute.lsq.storeBuffer: StoreBuffer step numUnissuedAccesses: 0
 724500: system.cpu0.execute.lsq.storeBuffer: StoreBuffer step numUnissuedAccesses: 0
 724500: system.cpu0.execute.lsq: No matching memory response for inst: 0/11.1/26/131.131 pc: 0x10114 (jal)
 725000: system.cpu0.execute.lsq.storeBuffer: StoreBuffer step numUnissuedAccesses: 0
 725000: system.cpu0.execute.lsq: No matching memory response for inst: 0/11.1/26/131.131 pc: 0x10114 (jal)
 725500: system.cpu0.execute.lsq.storeBuffer: StoreBuffer step numUnissuedAccesses: 0
 725500: system.cpu0.execute.lsq: Pushing request (load) addr: 0x7fffffffffffff40 size: 4 flags: 0x0 lineWidth : 0x40
 725500: system.cpu0.execute.lsq: Setting state from NotIssued to InTranslation for request: 0/11.1/26/132.132 pc: 0x10118 (c_lwsp)
 725500: system.cpu0.execute.lsq: Submitting DTLB request
 725500: system.cpu0.execute.lsq: Received translation response for request: 0/11.1/26/132.132 pc: 0x10118 (c_lwsp)
 725500: system.cpu0.execute.lsq: Setting state from InTranslation to Translated for request: 0/11.1/26/132.132 pc: 0x10118 (c_lwsp)
 725500: system.cpu0.execute.lsq: No forwardable data from store buffer
 725500: system.cpu0.execute.lsq: Trying to send request: 0/11.1/26/132.132 pc: 0x10118 (c_lwsp) addr: 0x7fffffffffffff40
 725500: system.cpu0.execute.lsq: Sent data memory request
 725500: system.cpu0.execute.lsq: Setting state from Translated to RequestIssuing for request: 0/11.1/26/132.132 pc: 0x10118 (c_lwsp)
 726000: system.cpu0.execute.lsq.storeBuffer: StoreBuffer step numUnissuedAccesses: 0
 726000: system.cpu0.execute.lsq: No matching memory response for inst: 0/11.1/26/132.132 pc: 0x10118 (c_lwsp)
 726001: system.cpu0.execute.lsq: Received response packet inst: 0/11.1/26/132.132 pc: 0x10118 (c_lwsp) addr: 0x2f40 cmd: ReadResp
 726001: system.cpu0.execute.lsq: Retiring packet
 726001: system.cpu0.execute.lsq: Setting state from RequestIssuing to Complete for request: 0/11.1/26/132.132 pc: 0x10118 (c_lwsp)
 726001: system.cpu0.execute.lsq: Has outstanding packets?: 0 1
 726500: system.cpu0.execute.lsq.storeBuffer: StoreBuffer step numUnissuedAccesses: 0
 726500: system.cpu0.execute.lsq: Found matching memory response for inst: 0/11.1/26/132.132 pc: 0x10118 (c_lwsp)
 726500: system.cpu0.execute.lsq: Found matching memory response for inst: 0/11.1/26/132.132 pc: 0x10118 (c_lwsp)
[...]
1194501: system.cpu0.execute.lsq: Completed burst 1
1194501: system.cpu0.execute.lsq: Retired packet isRead: 1 isWrite: 0 needsResponse: 1 packetSize: 464 requestSize: 464 responseSize: 48
1194501: system.cpu0.execute.lsq: Copying read data
1194501: system.cpu0.execute.lsq: Has outstanding packets?: 0 1
1195000: system.cpu0.execute.lsq.storeBuffer: StoreBuffer step numUnissuedAccesses: 0
1195000: system.cpu0.execute.lsq: Found matching memory response for stream: 34
Using Schedule: "sched/none.sched"
Switched to config: none lat_mis:0 (group breakdown: group0: fu_thr:1 mis:1 )
1195000: system.cpu0.execute.lsq: Deleting load request: 0/23.2/59/294.294 pc: 0x100d4 (ss_cfg)
1195000: system.cpu0.execute.lsq: No matching memory response for stream: 4
1195000: system.cpu0.execute.lsq: No matching memory response for stream: 23
1195000: system.cpu0.execute.lsq: No matching memory response for stream: 24
1195000: system.cpu0.execute.lsq: No matching memory response for stream: 25
1195000: system.cpu0.execute.lsq: No matching memory response for stream: 26
1195000: system.cpu0.execute.lsq: No matching memory response for stream: 27
1195000: system.cpu0.execute.lsq: No matching memory response for stream: 28
1195000: system.cpu0.execute.lsq: No matching memory response for stream: 29
1195000: system.cpu0.execute.lsq: No matching memory response for stream: 30
1195000: system.cpu0.execute.lsq: No matching memory response for stream: 31
1195000: system.cpu0.execute.lsq: No matching memory response for stream: 34
1195000: system.cpu0.execute.lsq: No matching memory response for stream: 23
1195000: system.cpu0.execute.lsq: No matching memory response for stream: 24
1195000: system.cpu0.execute.lsq: No matching memory response for stream: 25
1195000: system.cpu0.execute.lsq: No matching memory response for stream: 26
1195000: system.cpu0.execute.lsq: No matching memory response for stream: 27
1195000: system.cpu0.execute.lsq: No matching memory response for stream: 28
1195000: system.cpu0.execute.lsq: No matching memory response for stream: 29
1195000: system.cpu0.execute.lsq: No matching memory response for stream: 30
1195000: system.cpu0.execute.lsq: No matching memory response for stream: 31
1195500: system.cpu0.execute.lsq.storeBuffer: StoreBuffer step numUnissuedAccesses: 0
1195500: system.cpu0.execute.lsq: No matching memory response for stream: 34
1195500: system.cpu0.execute.lsq: No matching memory response for stream: 4
1195500: system.cpu0.execute.lsq: No matching memory response for stream: 23
1195500: system.cpu0.execute.lsq: No matching memory response for stream: 24
1195500: system.cpu0.execute.lsq: No matching memory response for stream: 25
1195500: system.cpu0.execute.lsq: No matching memory response for stream: 26
1195500: system.cpu0.execute.lsq: No matching memory response for stream: 27
1195500: system.cpu0.execute.lsq: No matching memory response for stream: 28
1195500: system.cpu0.execute.lsq: No matching memory response for stream: 29
1195500: system.cpu0.execute.lsq: No matching memory response for stream: 30
1195500: system.cpu0.execute.lsq: No matching memory response for stream: 31
1195500: system.cpu0.execute.lsq: No matching memory response for stream: 34
1195500: system.cpu0.execute.lsq: No matching memory response for stream: 23
1195500: system.cpu0.execute.lsq: No matching memory response for stream: 24
1195500: system.cpu0.execute.lsq: No matching memory response for stream: 25
1195500: system.cpu0.execute.lsq: No matching memory response for stream: 26
1195500: system.cpu0.execute.lsq: No matching memory response for stream: 27
1195500: system.cpu0.execute.lsq: No matching memory response for stream: 28
1195500: system.cpu0.execute.lsq: No matching memory response for stream: 29
1195500: system.cpu0.execute.lsq: No matching memory response for stream: 30
1195500: system.cpu0.execute.lsq: No matching memory response for stream: 31
1196000: system.cpu0.execute.lsq.storeBuffer: StoreBuffer step numUnissuedAccesses: 0
1196000: system.cpu0.execute.lsq: No matching memory response for stream: 34
1196000: system.cpu0.execute.lsq: No matching memory response for stream: 4
1196000: system.cpu0.execute.lsq: No matching memory response for stream: 23
1196000: system.cpu0.execute.lsq: No matching memory response for stream: 24
1196000: system.cpu0.execute.lsq: No matching memory response for stream: 25
1196000: system.cpu0.execute.lsq: No matching memory response for stream: 26
1196000: system.cpu0.execute.lsq: No matching memory response for stream: 27
1196000: system.cpu0.execute.lsq: No matching memory response for stream: 28
1196000: system.cpu0.execute.lsq: No matching memory response for stream: 29
1196000: system.cpu0.execute.lsq: No matching memory response for stream: 30
1196000: system.cpu0.execute.lsq: No matching memory response for stream: 31
1196000: system.cpu0.execute.lsq: Pushing request (load) addr: 0x7ffffffffffffec0 size: 64 flags: 0x0 lineWidth : 0x40
1196000: system.cpu0.execute.lsq: Setting state from NotIssued to InTranslation for request: 0/23.2/59/299.299 pc: 0x100e2 (ss_wr_dma)
1196000: system.cpu0.execute.lsq: Submitting DTLB request
1196000: system.cpu0.execute.lsq: Received translation response for request: 0/23.2/59/299.299 pc: 0x100e2 (ss_wr_dma)
1196000: system.cpu0.execute.lsq: Setting state from InTranslation to Translated for request: 0/23.2/59/299.299 pc: 0x100e2 (ss_wr_dma)
1196000: system.cpu0.execute.lsq: No forwardable data from store buffer
1196000: system.cpu0.execute.lsq: Trying to send request: 0/23.2/59/299.299 pc: 0x100e2 (ss_wr_dma) addr: 0x7ffffffffffffec0
1196000: system.cpu0.execute.lsq: Sent data memory request
1196000: system.cpu0.execute.lsq: Setting state from Translated to RequestIssuing for request: 0/23.2/59/299.299 pc: 0x100e2 (ss_wr_dma)
1196000: system.cpu0.execute.lsq: No matching memory response for stream: 34
1196000: system.cpu0.execute.lsq: No matching memory response for stream: 23
1196000: system.cpu0.execute.lsq: No matching memory response for stream: 24
1196000: system.cpu0.execute.lsq: No matching memory response for stream: 25
1196000: system.cpu0.execute.lsq: No matching memory response for stream: 26
1196000: system.cpu0.execute.lsq: No matching memory response for stream: 27
1196000: system.cpu0.execute.lsq: No matching memory response for stream: 28
1196000: system.cpu0.execute.lsq: No matching memory response for stream: 29
1196000: system.cpu0.execute.lsq: No matching memory response for stream: 30
1196000: system.cpu0.execute.lsq: No matching memory response for stream: 31
1196500: system.cpu0.execute.lsq.storeBuffer: StoreBuffer step numUnissuedAccesses: 0
1196500: system.cpu0.execute.lsq: No matching memory response for stream: 34
1196500: system.cpu0.execute.lsq: No matching memory response for stream: 4
1196500: system.cpu0.execute.lsq: No matching memory response for stream: 23
1196500: system.cpu0.execute.lsq: No matching memory response for stream: 24
1196500: system.cpu0.execute.lsq: No matching memory response for stream: 25
1196500: system.cpu0.execute.lsq: No matching memory response for stream: 26
1196500: system.cpu0.execute.lsq: No matching memory response for stream: 27
1196500: system.cpu0.execute.lsq: No matching memory response for stream: 28
1196500: system.cpu0.execute.lsq: No matching memory response for stream: 29
1196500: system.cpu0.execute.lsq: No matching memory response for stream: 30
1196500: system.cpu0.execute.lsq: No matching memory response for stream: 31
1196500: system.cpu0.execute.lsq: Pushing request (load) addr: 0x7fffffffffffff00 size: 64 flags: 0x0 lineWidth : 0x40
1196500: system.cpu0.execute.lsq: Setting state from NotIssued to InTranslation for request: 0/23.2/59/299.299 pc: 0x100e2 (ss_wr_dma)
1196500: system.cpu0.execute.lsq: Submitting DTLB request
1196500: system.cpu0.execute.lsq: Received translation response for request: 0/23.2/59/299.299 pc: 0x100e2 (ss_wr_dma)
1196500: system.cpu0.execute.lsq: Setting state from InTranslation to Translated for request: 0/23.2/59/299.299 pc: 0x100e2 (ss_wr_dma)
1196500: system.cpu0.execute.lsq: No forwardable data from store buffer
1196500: system.cpu0.execute.lsq: Trying to send request: 0/23.2/59/299.299 pc: 0x100e2 (ss_wr_dma) addr: 0x7fffffffffffff00
1196500: system.cpu0.execute.lsq: Sent data memory request
1196500: system.cpu0.execute.lsq: Setting state from Translated to RequestIssuing for request: 0/23.2/59/299.299 pc: 0x100e2 (ss_wr_dma)
1196500: system.cpu0.execute.lsq: No matching memory response for stream: 34
1196500: system.cpu0.execute.lsq: No matching memory response for stream: 23
1196500: system.cpu0.execute.lsq: No matching memory response for stream: 24
1196500: system.cpu0.execute.lsq: No matching memory response for stream: 25
1196500: system.cpu0.execute.lsq: No matching memory response for stream: 26
1196500: system.cpu0.execute.lsq: No matching memory response for stream: 27
1196500: system.cpu0.execute.lsq: No matching memory response for stream: 28
1196500: system.cpu0.execute.lsq: No matching memory response for stream: 29
1196500: system.cpu0.execute.lsq: No matching memory response for stream: 30
1196500: system.cpu0.execute.lsq: No matching memory response for stream: 31
1196501: system.cpu0.execute.lsq: Received response packet inst: 0/23.2/59/299.299 pc: 0x100e2 (ss_wr_dma) addr: 0x2ec0 cmd: ReadResp
1196501: system.cpu0.execute.lsq: Retiring packet
1196501: system.cpu0.execute.lsq: Setting state from RequestIssuing to Complete for request: 0/23.2/59/299.299 pc: 0x100e2 (ss_wr_dma)
1196501: system.cpu0.execute.lsq: Has outstanding packets?: 0 1
1197000: system.cpu0.execute.lsq.storeBuffer: StoreBuffer step numUnissuedAccesses: 0
1197000: system.cpu0.execute.lsq: No matching memory response for stream: 34
1197000: system.cpu0.execute.lsq: Found matching memory response for stream: 4
1197000: system.cpu0.execute.lsq: Deleting load request: 0/23.2/59/299.299 pc: 0x100e2 (ss_wr_dma)
1197000: system.cpu0.execute.lsq: No matching memory response for stream: 23
1197000: system.cpu0.execute.lsq: No matching memory response for stream: 24
1197000: system.cpu0.execute.lsq: No matching memory response for stream: 25
1197000: system.cpu0.execute.lsq: No matching memory response for stream: 26
1197000: system.cpu0.execute.lsq: No matching memory response for stream: 27
1197000: system.cpu0.execute.lsq: No matching memory response for stream: 28
1197000: system.cpu0.execute.lsq: No matching memory response for stream: 29
1197000: system.cpu0.execute.lsq: No matching memory response for stream: 30
1197000: system.cpu0.execute.lsq: No matching memory response for stream: 31
1197000: system.cpu0.execute.lsq: Pushing request (load) addr: 0x7fffffffffffff40 size: 64 flags: 0x0 lineWidth : 0x40
1197000: system.cpu0.execute.lsq: Setting state from NotIssued to InTranslation for request: 0/23.2/59/299.299 pc: 0x100e2 (ss_wr_dma)
1197000: system.cpu0.execute.lsq: Submitting DTLB request
1197000: system.cpu0.execute.lsq: Received translation response for request: 0/23.2/59/299.299 pc: 0x100e2 (ss_wr_dma)
1197000: system.cpu0.execute.lsq: Setting state from InTranslation to Translated for request: 0/23.2/59/299.299 pc: 0x100e2 (ss_wr_dma)
1197000: system.cpu0.execute.lsq: No forwardable data from store buffer
1197000: system.cpu0.execute.lsq: Trying to send request: 0/23.2/59/299.299 pc: 0x100e2 (ss_wr_dma) addr: 0x7fffffffffffff40
1197000: system.cpu0.execute.lsq: Sent data memory request
1197000: system.cpu0.execute.lsq: Setting state from Translated to RequestIssuing for request: 0/23.2/59/299.299 pc: 0x100e2 (ss_wr_dma)
1197000: system.cpu0.execute.lsq: No matching memory response for stream: 34
1197000: system.cpu0.execute.lsq: No matching memory response for stream: 23
1197000: system.cpu0.execute.lsq: No matching memory response for stream: 24
1197000: system.cpu0.execute.lsq: No matching memory response for stream: 25
1197000: system.cpu0.execute.lsq: No matching memory response for stream: 26
1197000: system.cpu0.execute.lsq: No matching memory response for stream: 27
1197000: system.cpu0.execute.lsq: No matching memory response for stream: 28
1197000: system.cpu0.execute.lsq: No matching memory response for stream: 29
1197000: system.cpu0.execute.lsq: No matching memory response for stream: 30
1197000: system.cpu0.execute.lsq: No matching memory response for stream: 31
1197001: system.cpu0.execute.lsq: Received response packet inst: 0/23.2/59/299.299 pc: 0x100e2 (ss_wr_dma) addr: 0x2f00 cmd: ReadResp
1197001: system.cpu0.execute.lsq: Retiring packet
1197001: system.cpu0.execute.lsq: Setting state from RequestIssuing to Complete for request: 0/23.2/59/299.299 pc: 0x100e2 (ss_wr_dma)
1197001: system.cpu0.execute.lsq: Has outstanding packets?: 0 1
1197500: system.cpu0.execute.lsq.storeBuffer: StoreBuffer step numUnissuedAccesses: 0
1197500: system.cpu0.execute.lsq: No matching memory response for stream: 34
1197500: system.cpu0.execute.lsq: Found matching memory response for stream: 4
1197500: system.cpu0.execute.lsq: Deleting load request: 0/23.2/59/299.299 pc: 0x100e2 (ss_wr_dma)
1197500: system.cpu0.execute.lsq: No matching memory response for stream: 23
1197500: system.cpu0.execute.lsq: No matching memory response for stream: 24
1197500: system.cpu0.execute.lsq: No matching memory response for stream: 25
1197500: system.cpu0.execute.lsq: No matching memory response for stream: 26
1197500: system.cpu0.execute.lsq: No matching memory response for stream: 27
1197500: system.cpu0.execute.lsq: No matching memory response for stream: 28
1197500: system.cpu0.execute.lsq: No matching memory response for stream: 29
1197500: system.cpu0.execute.lsq: No matching memory response for stream: 30
1197500: system.cpu0.execute.lsq: No matching memory response for stream: 31
1197500: system.cpu0.execute.lsq: Pushing request (load) addr: 0x7fffffffffffff80 size: 64 flags: 0x0 lineWidth : 0x40
1197500: system.cpu0.execute.lsq: Setting state from NotIssued to InTranslation for request: 0/23.2/59/299.299 pc: 0x100e2 (ss_wr_dma)
1197500: system.cpu0.execute.lsq: Submitting DTLB request
1197500: system.cpu0.execute.lsq: Received translation response for request: 0/23.2/59/299.299 pc: 0x100e2 (ss_wr_dma)
1197500: system.cpu0.execute.lsq: Setting state from InTranslation to Translated for request: 0/23.2/59/299.299 pc: 0x100e2 (ss_wr_dma)
1197500: system.cpu0.execute.lsq: No forwardable data from store buffer
1197500: system.cpu0.execute.lsq: Trying to send request: 0/23.2/59/299.299 pc: 0x100e2 (ss_wr_dma) addr: 0x7fffffffffffff80
1197500: system.cpu0.execute.lsq: Sent data memory request
1197500: system.cpu0.execute.lsq: Setting state from Translated to RequestIssuing for request: 0/23.2/59/299.299 pc: 0x100e2 (ss_wr_dma)
1197500: system.cpu0.execute.lsq: No matching memory response for stream: 34
1197500: system.cpu0.execute.lsq: No matching memory response for stream: 23
1197500: system.cpu0.execute.lsq: No matching memory response for stream: 24
1197500: system.cpu0.execute.lsq: No matching memory response for stream: 25
1197500: system.cpu0.execute.lsq: No matching memory response for stream: 26
1197500: system.cpu0.execute.lsq: No matching memory response for stream: 27
1197500: system.cpu0.execute.lsq: No matching memory response for stream: 28
1197500: system.cpu0.execute.lsq: No matching memory response for stream: 29
1197500: system.cpu0.execute.lsq: No matching memory response for stream: 30
1197500: system.cpu0.execute.lsq: No matching memory response for stream: 31
1197501: system.cpu0.execute.lsq: Received response packet inst: 0/23.2/59/299.299 pc: 0x100e2 (ss_wr_dma) addr: 0x2f40 cmd: ReadResp
1197501: system.cpu0.execute.lsq: Retiring packet
1197501: system.cpu0.execute.lsq: Setting state from RequestIssuing to Complete for request: 0/23.2/59/299.299 pc: 0x100e2 (ss_wr_dma)
1197501: system.cpu0.execute.lsq: Has outstanding packets?: 0 1
1198000: system.cpu0.execute.lsq.storeBuffer: StoreBuffer step numUnissuedAccesses: 0
1198000: system.cpu0.execute.lsq: No matching memory response for stream: 34
1198000: system.cpu0.execute.lsq: Found matching memory response for stream: 4
1198000: system.cpu0.execute.lsq: Deleting load request: 0/23.2/59/299.299 pc: 0x100e2 (ss_wr_dma)
1198000: system.cpu0.execute.lsq: No matching memory response for stream: 23
1198000: system.cpu0.execute.lsq: No matching memory response for stream: 24
1198000: system.cpu0.execute.lsq: No matching memory response for stream: 25
1198000: system.cpu0.execute.lsq: No matching memory response for stream: 26
1198000: system.cpu0.execute.lsq: No matching memory response for stream: 27
1198000: system.cpu0.execute.lsq: No matching memory response for stream: 28
1198000: system.cpu0.execute.lsq: No matching memory response for stream: 29
1198000: system.cpu0.execute.lsq: No matching memory response for stream: 30
1198000: system.cpu0.execute.lsq: No matching memory response for stream: 31
1198000: system.cpu0.execute.lsq: Pushing request (load) addr: 0x7fffffffffffffc0 size: 64 flags: 0x0 lineWidth : 0x40
1198000: system.cpu0.execute.lsq: Setting state from NotIssued to InTranslation for request: 0/23.2/59/299.299 pc: 0x100e2 (ss_wr_dma)
1198000: system.cpu0.execute.lsq: Submitting DTLB request
1198000: system.cpu0.execute.lsq: Received translation response for request: 0/23.2/59/299.299 pc: 0x100e2 (ss_wr_dma)
1198000: system.cpu0.execute.lsq: Setting state from InTranslation to Translated for request: 0/23.2/59/299.299 pc: 0x100e2 (ss_wr_dma)
1198000: system.cpu0.execute.lsq: No forwardable data from store buffer
1198000: system.cpu0.execute.lsq: Trying to send request: 0/23.2/59/299.299 pc: 0x100e2 (ss_wr_dma) addr: 0x7fffffffffffffc0
1198000: system.cpu0.execute.lsq: Sent data memory request
1198000: system.cpu0.execute.lsq: Setting state from Translated to RequestIssuing for request: 0/23.2/59/299.299 pc: 0x100e2 (ss_wr_dma)
1198000: system.cpu0.execute.lsq: No matching memory response for stream: 34
1198000: system.cpu0.execute.lsq: No matching memory response for stream: 23
1198000: system.cpu0.execute.lsq: No matching memory response for stream: 24
1198000: system.cpu0.execute.lsq: No matching memory response for stream: 25
1198000: system.cpu0.execute.lsq: No matching memory response for stream: 26
1198000: system.cpu0.execute.lsq: No matching memory response for stream: 27
1198000: system.cpu0.execute.lsq: No matching memory response for stream: 28
1198000: system.cpu0.execute.lsq: No matching memory response for stream: 29
1198000: system.cpu0.execute.lsq: No matching memory response for stream: 30
1198000: system.cpu0.execute.lsq: No matching memory response for stream: 31
1198500: system.cpu0.execute.lsq.storeBuffer: StoreBuffer step numUnissuedAccesses: 0
1198500: system.cpu0.execute.lsq: No matching memory response for stream: 34
1198500: system.cpu0.execute.lsq: No matching memory response for stream: 4
1198500: system.cpu0.execute.lsq: No matching memory response for stream: 23
1198500: system.cpu0.execute.lsq: No matching memory response for stream: 24
1198500: system.cpu0.execute.lsq: No matching memory response for stream: 25
1198500: system.cpu0.execute.lsq: No matching memory response for stream: 26
1198500: system.cpu0.execute.lsq: No matching memory response for stream: 27
1198500: system.cpu0.execute.lsq: No matching memory response for stream: 28
1198500: system.cpu0.execute.lsq: No matching memory response for stream: 29
1198500: system.cpu0.execute.lsq: No matching memory response for stream: 30
1198500: system.cpu0.execute.lsq: No matching memory response for stream: 31
1198500: system.cpu0.execute.lsq: Pushing request (load) addr: 0x8000000000000000 size: 64 flags: 0x0 lineWidth : 0x40
1198500: system.cpu0.execute.lsq: Setting state from NotIssued to InTranslation for request: 0/23.2/59/299.299 pc: 0x100e2 (ss_wr_dma)
1198500: system.cpu0.execute.lsq: Submitting DTLB request
