gem5 Simulator System.  http://gem5.org
gem5 is copyrighted software; use the --copyright option for details.

gem5 compiled Oct  3 2018 15:02:46
gem5 started Oct  4 2018 16:45:14
gem5 executing on octa, pid 21313
command line: gem5.opt --debug-flags=Minor /home/vidushi/ss-stack/gem5/configs/example/se.py --cpu-type=MinorCPU --l1d_size=4096kB --l1i_size=16kB --l2_size=4096kB --caches --cmd=main

Global frequency set at 1000000000000 ticks per second
Loading SS Config (env SBCONFIG): "/home/vidushi/ss-stack/ss-tools/configs/spu_merge_test.sbmodel"
FU_FIFO_LEN:15
IND_ROB_SIZE:8
VPORT_IN depricated, ignoring colons, switch to PORT_IN
      0: system.cpu: ActivateContext thread: 0
**** REAL SIMULATION ****
      0: system.cpu: MinorCPU startup
    500: system.cpu.execute.lsq.storeBuffer: StoreBuffer step numUnissuedAccesses: 0
    500: system.cpu.execute: No interrupt controller
    500: system.cpu.execute: [tid:0] thread_interrupted?=0 isInbetweenInsts?=1
   1000: system.cpu.execute.lsq.storeBuffer: StoreBuffer step numUnissuedAccesses: 0
   1000: system.cpu.execute: No interrupt controller
   1000: system.cpu.execute: [tid:0] thread_interrupted?=0 isInbetweenInsts?=1
  78500: system.cpu.execute.lsq.storeBuffer: StoreBuffer step numUnissuedAccesses: 0
  78500: system.cpu.execute: No interrupt controller
  78500: system.cpu.execute: [tid:0] thread_interrupted?=0 isInbetweenInsts?=1
  79000: system.cpu.execute.lsq.storeBuffer: StoreBuffer step numUnissuedAccesses: 0
  79000: system.cpu.execute: No interrupt controller
  79000: system.cpu.execute: [tid:0] thread_interrupted?=0 isInbetweenInsts?=1
  79500: system.cpu.execute.lsq.storeBuffer: StoreBuffer step numUnissuedAccesses: 0
  79500: system.cpu.execute: No interrupt controller
  79500: system.cpu.execute: [tid:0] thread_interrupted?=0 isInbetweenInsts?=1
  80000: system.cpu.execute.lsq.storeBuffer: StoreBuffer step numUnissuedAccesses: 0
  80000: system.cpu.execute: No interrupt controller
  80000: system.cpu.execute: [tid:0] thread_interrupted?=0 isInbetweenInsts?=1
  80000: system.cpu.execute: Attempting to issue [tid:0]
  80000: system.cpu.execute:  ............... : 0/1.1/1/1.1 pc: 0x100f0 (auipc) 
  80000: system.cpu.execute: Trying to issue inst: 0/1.1/1/1.1 pc: 0x100f0 (auipc) to FU: 0
  80000: system.cpu.execute: Issuing inst: 0/1.1/1/1.1 pc: 0x100f0 (auipc) into FU 0
  80000: system.cpu.execute.scoreboard0: Marking up inst: 0/1.1/1/1.1 pc: 0x100f0 (auipc) regIndex: 3 final numResults: 1 returnCycle: 163
  80000: system.cpu.execute: Reached inst issue limit
  80000: system.cpu.execute: Stepping to next inst inputIndex: 1
  80000: system.cpu.execute: Wrapping
  80000: system.cpu.execute.lsq: No matching memory response for inst: 0/1.1/1/1.1 pc: 0x100f0 (auipc)
  80500: system.cpu.execute.lsq.storeBuffer: StoreBuffer step numUnissuedAccesses: 0
  80500: system.cpu.execute: No interrupt controller
  80500: system.cpu.execute: [tid:0] thread_interrupted?=0 isInbetweenInsts?=1
  80500: system.cpu.execute: Attempting to issue [tid:0]
  80500: system.cpu.execute:  ............... : 0/1.1/1/2.2 pc: 0x100f4 (addi) 
  80500: system.cpu.execute: Trying to issue inst: 0/1.1/1/2.2 pc: 0x100f4 (addi) to FU: 0
  80500: system.cpu.execute: Issuing inst: 0/1.1/1/2.2 pc: 0x100f4 (addi) into FU 0
  80500: system.cpu.execute.scoreboard0: Marking up inst: 0/1.1/1/2.2 pc: 0x100f4 (addi) regIndex: 3 final numResults: 2 returnCycle: 164
  80500: system.cpu.execute: Reached inst issue limit
  80500: system.cpu.execute: Stepping to next inst inputIndex: 1
  80500: system.cpu.execute: Wrapping
  80500: system.cpu.execute.lsq: No matching memory response for inst: 0/1.1/1/1.1 pc: 0x100f0 (auipc)
  81000: system.cpu.execute.lsq.storeBuffer: StoreBuffer step numUnissuedAccesses: 0
  81000: system.cpu.execute: No interrupt controller
  81000: system.cpu.execute: [tid:0] thread_interrupted?=0 isInbetweenInsts?=1
  81000: system.cpu.execute: Attempting to issue [tid:0]
  81000: system.cpu.execute:  ............... : 0/1.1/1/3.3 pc: 0x100f8 (addi) 
  81000: system.cpu.execute: Trying to issue inst: 0/1.1/1/3.3 pc: 0x100f8 (addi) to FU: 0
  81000: system.cpu.execute: Issuing inst: 0/1.1/1/3.3 pc: 0x100f8 (addi) into FU 0
  81000: system.cpu.execute.scoreboard0: Marking up inst: 0/1.1/1/3.3 pc: 0x100f8 (addi) regIndex: 10 final numResults: 1 returnCycle: 165
  81000: system.cpu.execute: Reached inst issue limit
  81000: system.cpu.execute: Stepping to next inst inputIndex: 1
  81000: system.cpu.execute: Wrapping
  81500: system.cpu.execute.lsq.storeBuffer: StoreBuffer step numUnissuedAccesses: 0
  81500: system.cpu.execute: No interrupt controller
  81500: system.cpu.execute: [tid:0] thread_interrupted?=0 isInbetweenInsts?=1
  81500: system.cpu.execute: Attempting to commit [tid:0]
  81500: system.cpu.execute: Committing micro-ops for interrupt[tid:0]
  81500: system.cpu.execute: Trying to commit canCommitInsts: 1
  81500: system.cpu.execute: Trying to commit from FUs
  81500: global: ExecContext setting PC: (0x100f0=>0x100f4).(0=>1)
  81500: system.cpu.execute: Committing inst: 0/1.1/1/1.1 pc: 0x100f0 (auipc)
  81500: system.cpu.execute: Unstalling 0 for inst 0/1.1/1/1.1
  81500: system.cpu.execute: Completed inst: 0/1.1/1/1.1 pc: 0x100f0 (auipc)
  81500: system.cpu.execute.scoreboard0: Clearing inst: 0/1.1/1/1.1 pc: 0x100f0 (auipc) regIndex: 3 final numResults: 1
  81500: system.cpu.execute: Trying to commit canCommitInsts: 1
  81500: system.cpu.execute: Trying to commit from FUs
  81500: system.cpu.execute: Attempting to issue [tid:0]
  81500: system.cpu.execute:  ............... : 0/1.1/1/4.4 pc: 0x100fc (addi) 
  81500: system.cpu.execute: Trying to issue inst: 0/1.1/1/4.4 pc: 0x100fc (addi) to FU: 0
  81500: system.cpu.execute: Issuing inst: 0/1.1/1/4.4 pc: 0x100fc (addi) into FU 0
  81500: system.cpu.execute.scoreboard0: Marking up inst: 0/1.1/1/4.4 pc: 0x100fc (addi) regIndex: 12 final numResults: 1 returnCycle: 166
  81500: system.cpu.execute: Reached inst issue limit
  81500: system.cpu.execute: Stepping to next inst inputIndex: 1
  81500: system.cpu.execute: Wrapping
  82000: system.cpu.execute.lsq.storeBuffer: StoreBuffer step numUnissuedAccesses: 0
  82000: system.cpu.execute: No interrupt controller
  82000: system.cpu.execute: [tid:0] thread_interrupted?=0 isInbetweenInsts?=1
  82000: system.cpu.execute: Attempting to commit [tid:0]
  82000: system.cpu.execute: Committing micro-ops for interrupt[tid:0]
  82000: system.cpu.execute: Trying to commit canCommitInsts: 1
  82000: system.cpu.execute: Trying to commit from FUs
  82000: global: ExecContext setting PC: (0x100f4=>0x100f8).(0=>1)
  82000: system.cpu.execute: Committing inst: 0/1.1/1/2.2 pc: 0x100f4 (addi)
  82000: system.cpu.execute: Unstalling 0 for inst 0/1.1/1/2.2
  82000: system.cpu.execute: Completed inst: 0/1.1/1/2.2 pc: 0x100f4 (addi)
  82000: system.cpu.execute.scoreboard0: Clearing inst: 0/1.1/1/2.2 pc: 0x100f4 (addi) regIndex: 3 final numResults: 0
  82000: system.cpu.execute: Trying to commit canCommitInsts: 1
  82000: system.cpu.execute: Trying to commit from FUs
  82500: system.cpu.execute.lsq.storeBuffer: StoreBuffer step numUnissuedAccesses: 0
  82500: system.cpu.execute: No interrupt controller
  82500: system.cpu.execute: [tid:0] thread_interrupted?=0 isInbetweenInsts?=1
  82500: system.cpu.execute: Attempting to commit [tid:0]
  82500: system.cpu.execute: Committing micro-ops for interrupt[tid:0]
  82500: system.cpu.execute: Trying to commit canCommitInsts: 1
  82500: system.cpu.execute: Trying to commit from FUs
  82500: global: ExecContext setting PC: (0x100f8=>0x100fc).(0=>1)
  82500: system.cpu.execute: Committing inst: 0/1.1/1/3.3 pc: 0x100f8 (addi)
  82500: system.cpu.execute: Unstalling 0 for inst 0/1.1/1/3.3
  82500: system.cpu.execute: Completed inst: 0/1.1/1/3.3 pc: 0x100f8 (addi)
  82500: system.cpu.execute.scoreboard0: Clearing inst: 0/1.1/1/3.3 pc: 0x100f8 (addi) regIndex: 10 final numResults: 0
  82500: system.cpu.execute: Trying to commit canCommitInsts: 1
  82500: system.cpu.execute: Trying to commit from FUs
  83000: system.cpu.execute.lsq.storeBuffer: StoreBuffer step numUnissuedAccesses: 0
  83000: system.cpu.execute: No interrupt controller
  83000: system.cpu.execute: [tid:0] thread_interrupted?=0 isInbetweenInsts?=1
  83000: system.cpu.execute: Attempting to commit [tid:0]
  83000: system.cpu.execute: Committing micro-ops for interrupt[tid:0]
  83000: system.cpu.execute: Trying to commit canCommitInsts: 1
  83000: system.cpu.execute: Trying to commit from FUs
  83000: global: ExecContext setting PC: (0x100fc=>0x10100).(0=>1)
  83000: system.cpu.execute: Committing inst: 0/1.1/1/4.4 pc: 0x100fc (addi)
  83000: system.cpu.execute: Unstalling 0 for inst 0/1.1/1/4.4
  83000: system.cpu.execute: Completed inst: 0/1.1/1/4.4 pc: 0x100fc (addi)
  83000: system.cpu.execute.scoreboard0: Clearing inst: 0/1.1/1/4.4 pc: 0x100fc (addi) regIndex: 12 final numResults: 0
 136500: system.cpu.execute.lsq.storeBuffer: StoreBuffer step numUnissuedAccesses: 0
 136500: system.cpu.execute: No interrupt controller
 136500: system.cpu.execute: [tid:0] thread_interrupted?=0 isInbetweenInsts?=1
 137000: system.cpu.execute.lsq.storeBuffer: StoreBuffer step numUnissuedAccesses: 0
 137000: system.cpu.execute: No interrupt controller
 137000: system.cpu.execute: [tid:0] thread_interrupted?=0 isInbetweenInsts?=1
 137500: system.cpu.execute.lsq.storeBuffer: StoreBuffer step numUnissuedAccesses: 0
 137500: system.cpu.execute: No interrupt controller
 137500: system.cpu.execute: [tid:0] thread_interrupted?=0 isInbetweenInsts?=1
 138000: system.cpu.execute.lsq.storeBuffer: StoreBuffer step numUnissuedAccesses: 0
 138000: system.cpu.execute: No interrupt controller
 138000: system.cpu.execute: [tid:0] thread_interrupted?=0 isInbetweenInsts?=1
 138000: system.cpu.execute: Attempting to issue [tid:0]
 138000: system.cpu.execute:  ............... : 0/1.1/2/5.5 pc: 0x10100 (c_sub) 
 138000: system.cpu.execute: Trying to issue inst: 0/1.1/2/5.5 pc: 0x10100 (c_sub) to FU: 0
 138000: system.cpu.execute: Issuing inst: 0/1.1/2/5.5 pc: 0x10100 (c_sub) into FU 0
 138000: system.cpu.execute.scoreboard0: Marking up inst: 0/1.1/2/5.5 pc: 0x10100 (c_sub) regIndex: 12 final numResults: 1 returnCycle: 279
 138000: system.cpu.execute: Reached inst issue limit
 138000: system.cpu.execute: Stepping to next inst inputIndex: 1
 138000: system.cpu.execute: Wrapping
 138000: system.cpu.execute.lsq: No matching memory response for inst: 0/1.1/2/5.5 pc: 0x10100 (c_sub)
 138500: system.cpu.execute.lsq.storeBuffer: StoreBuffer step numUnissuedAccesses: 0
 138500: system.cpu.execute: No interrupt controller
 138500: system.cpu.execute: [tid:0] thread_interrupted?=0 isInbetweenInsts?=1
 138500: system.cpu.execute: Attempting to issue [tid:0]
 138500: system.cpu.execute:  ............... : 0/1.1/2/6.6 pc: 0x10102 (c_li) 
 138500: system.cpu.execute: Trying to issue inst: 0/1.1/2/6.6 pc: 0x10102 (c_li) to FU: 0
 138500: system.cpu.execute: Issuing inst: 0/1.1/2/6.6 pc: 0x10102 (c_li) into FU 0
 138500: system.cpu.execute.scoreboard0: Marking up inst: 0/1.1/2/6.6 pc: 0x10102 (c_li) regIndex: 11 final numResults: 1 returnCycle: 280
 138500: system.cpu.execute: Reached inst issue limit
 138500: system.cpu.execute: Stepping to next inst inputIndex: 1
 138500: system.cpu.execute: Wrapping
 138500: system.cpu.execute.lsq: No matching memory response for inst: 0/1.1/2/5.5 pc: 0x10100 (c_sub)
 139000: system.cpu.execute.lsq.storeBuffer: StoreBuffer step numUnissuedAccesses: 0
 139000: system.cpu.execute: No interrupt controller
 139000: system.cpu.execute: [tid:0] thread_interrupted?=0 isInbetweenInsts?=1
 139000: system.cpu.execute: Attempting to issue [tid:0]
 139000: system.cpu.execute:  ............... : 0/1.1/2/7.7 pc: 0x10104 (jal) 
 139000: system.cpu.execute: Trying to issue inst: 0/1.1/2/7.7 pc: 0x10104 (jal) to FU: 0
 139000: system.cpu.execute: Issuing inst: 0/1.1/2/7.7 pc: 0x10104 (jal) into FU 0
 139000: system.cpu.execute.scoreboard0: Marking up inst: 0/1.1/2/7.7 pc: 0x10104 (jal) regIndex: 1 final numResults: 1 returnCycle: 281
 139000: system.cpu.execute: Reached inst issue limit
 139000: system.cpu.execute: Stepping to next inst inputIndex: 1
 139000: system.cpu.execute: Wrapping
 139500: system.cpu.execute.lsq.storeBuffer: StoreBuffer step numUnissuedAccesses: 0
 139500: system.cpu.execute: No interrupt controller
 139500: system.cpu.execute: [tid:0] thread_interrupted?=0 isInbetweenInsts?=1
 139500: system.cpu.execute: Attempting to commit [tid:0]
 139500: system.cpu.execute: Committing micro-ops for interrupt[tid:0]
 139500: system.cpu.execute: Trying to commit canCommitInsts: 1
 139500: system.cpu.execute: Trying to commit from FUs
 139500: global: ExecContext setting PC: (0x10100=>0x10102).(0=>1)
 139500: system.cpu.execute: Committing inst: 0/1.1/2/5.5 pc: 0x10100 (c_sub)
 139500: system.cpu.execute: Unstalling 0 for inst 0/1.1/2/5.5
 139500: system.cpu.execute: Completed inst: 0/1.1/2/5.5 pc: 0x10100 (c_sub)
 139500: system.cpu.execute.scoreboard0: Clearing inst: 0/1.1/2/5.5 pc: 0x10100 (c_sub) regIndex: 12 final numResults: 0
 139500: system.cpu.execute: Trying to commit canCommitInsts: 1
 139500: system.cpu.execute: Trying to commit from FUs
 139500: system.cpu.execute: Attempting to issue [tid:0]
 139500: system.cpu.execute:  ............... : 0/1.1/2/8.8 pc: 0x10108 (auipc) 
 139500: system.cpu.execute: Trying to issue inst: 0/1.1/2/8.8 pc: 0x10108 (auipc) to FU: 0
 139500: system.cpu.execute: Issuing inst: 0/1.1/2/8.8 pc: 0x10108 (auipc) into FU 0
 139500: system.cpu.execute.scoreboard0: Marking up inst: 0/1.1/2/8.8 pc: 0x10108 (auipc) regIndex: 10 final numResults: 1 returnCycle: 282
 139500: system.cpu.execute: Reached inst issue limit
 139500: system.cpu.execute: Stepping to next inst inputIndex: 1
 139500: system.cpu.execute: Wrapping
 140000: system.cpu.execute.lsq.storeBuffer: StoreBuffer step numUnissuedAccesses: 0
 140000: system.cpu.execute: No interrupt controller
 140000: system.cpu.execute: [tid:0] thread_interrupted?=0 isInbetweenInsts?=1
 140000: system.cpu.execute: Attempting to commit [tid:0]
 140000: system.cpu.execute: Committing micro-ops for interrupt[tid:0]
 140000: system.cpu.execute: Trying to commit canCommitInsts: 1
 140000: system.cpu.execute: Trying to commit from FUs
 140000: global: ExecContext setting PC: (0x10102=>0x10104).(0=>1)
 140000: system.cpu.execute: Committing inst: 0/1.1/2/6.6 pc: 0x10102 (c_li)
 140000: system.cpu.execute: Unstalling 0 for inst 0/1.1/2/6.6
 140000: system.cpu.execute: Completed inst: 0/1.1/2/6.6 pc: 0x10102 (c_li)
 140000: system.cpu.execute.scoreboard0: Clearing inst: 0/1.1/2/6.6 pc: 0x10102 (c_li) regIndex: 11 final numResults: 0
 140000: system.cpu.execute: Trying to commit canCommitInsts: 1
 140000: system.cpu.execute: Trying to commit from FUs
 140000: system.cpu.execute: Attempting to issue [tid:0]
 140000: system.cpu.execute:  ............... : 0/1.1/2/9.9 pc: 0x1010c (addi) 
 140000: system.cpu.execute: Trying to issue inst: 0/1.1/2/9.9 pc: 0x1010c (addi) to FU: 0
 140000: system.cpu.execute: Issuing inst: 0/1.1/2/9.9 pc: 0x1010c (addi) into FU 0
 140000: system.cpu.execute.scoreboard0: Marking up inst: 0/1.1/2/9.9 pc: 0x1010c (addi) regIndex: 10 final numResults: 2 returnCycle: 283
 140000: system.cpu.execute: Reached inst issue limit
 140000: system.cpu.execute: Stepping to next inst inputIndex: 1
 140000: system.cpu.execute: Wrapping
 140500: system.cpu.execute.lsq.storeBuffer: StoreBuffer step numUnissuedAccesses: 0
 140500: system.cpu.execute: No interrupt controller
 140500: system.cpu.execute: [tid:0] thread_interrupted?=0 isInbetweenInsts?=1
 140500: system.cpu.execute: Attempting to commit [tid:0]
 140500: system.cpu.execute: Committing micro-ops for interrupt[tid:0]
 140500: system.cpu.execute: Trying to commit canCommitInsts: 1
 140500: system.cpu.execute: Trying to commit from FUs
 140500: global: ExecContext setting PC: (0x10104=>0x10108).(0=>1)
 140500: system.cpu.execute: Committing inst: 0/1.1/2/7.7 pc: 0x10104 (jal)
 140500: system.cpu.execute: Unstalling 0 for inst 0/1.1/2/7.7
 140500: system.cpu.execute: Completed inst: 0/1.1/2/7.7 pc: 0x10104 (jal)
 140500: system.cpu.execute.scoreboard0: Clearing inst: 0/1.1/2/7.7 pc: 0x10104 (jal) regIndex: 1 final numResults: 0
 140500: system.cpu.execute: Attempting to issue [tid:0]
 140500: system.cpu.execute:  ............... : 0/1.1/2/10.10 pc: 0x10110 (jal) 
 140500: system.cpu.execute: Discarding inst: 0/1.1/2/10.10 pc: 0x10110 (jal) as its stream state was unexpected, expected: 2
 140500: system.cpu.execute: Stepping to next inst inputIndex: 1
 140500: system.cpu.execute: Wrapping
 141000: system.cpu.execute.lsq.storeBuffer: StoreBuffer step numUnissuedAccesses: 0
 141000: system.cpu.execute: No interrupt controller
 141000: system.cpu.execute: [tid:0] thread_interrupted?=0 isInbetweenInsts?=1
 141000: system.cpu.execute: Attempting to commit [tid:0]
 141000: system.cpu.execute: Committing micro-ops for interrupt[tid:0]
 141000: system.cpu.execute: Trying to commit canCommitInsts: 1
 141000: system.cpu.execute: Trying to commit from FUs
 141000: system.cpu.execute: Unstalling 0 for inst 0/1.1/2/8.8
 141000: system.cpu.execute: Discarding inst: 0/1.1/2/8.8 pc: 0x10108 (auipc) as its stream state was unexpected, expected: 2
 141000: system.cpu.execute: Completed inst: 0/1.1/2/8.8 pc: 0x10108 (auipc)
 141000: system.cpu.execute.scoreboard0: Clearing inst: 0/1.1/2/8.8 pc: 0x10108 (auipc) regIndex: 10 final numResults: 1
 141000: system.cpu.execute: Trying to commit canCommitInsts: 1
 141000: system.cpu.execute: Trying to commit from FUs
 141000: system.cpu.execute: Attempting to issue [tid:0]
 141000: system.cpu.execute:  ............... : 0/1.1/2/11.11 pc: 0x10114 (jal) 
 141000: system.cpu.execute: Discarding inst: 0/1.1/2/11.11 pc: 0x10114 (jal) as its stream state was unexpected, expected: 2
 141000: system.cpu.execute: Stepping to next inst inputIndex: 1
 141000: system.cpu.execute: Wrapping
 141500: system.cpu.execute.lsq.storeBuffer: StoreBuffer step numUnissuedAccesses: 0
 141500: system.cpu.execute: No interrupt controller
 141500: system.cpu.execute: [tid:0] thread_interrupted?=0 isInbetweenInsts?=1
 141500: system.cpu.execute: Attempting to commit [tid:0]
 141500: system.cpu.execute: Committing micro-ops for interrupt[tid:0]
 141500: system.cpu.execute: Trying to commit canCommitInsts: 1
 141500: system.cpu.execute: Trying to commit from FUs
 141500: system.cpu.execute: Unstalling 0 for inst 0/1.1/2/9.9
 141500: system.cpu.execute: Discarding inst: 0/1.1/2/9.9 pc: 0x1010c (addi) as its stream state was unexpected, expected: 2
 141500: system.cpu.execute: Completed inst: 0/1.1/2/9.9 pc: 0x1010c (addi)
 141500: system.cpu.execute.scoreboard0: Clearing inst: 0/1.1/2/9.9 pc: 0x1010c (addi) regIndex: 10 final numResults: 0
 141500: system.cpu.execute: Attempting to issue [tid:0]
 141500: system.cpu.execute:  ............... : 0/1.1/2/12.12 pc: 0x10118 (c_lwsp) 
 141500: system.cpu.execute: Discarding inst: 0/1.1/2/12.12 pc: 0x10118 (c_lwsp) as its stream state was unexpected, expected: 2
 141500: system.cpu.execute: Stepping to next inst inputIndex: 1
 141500: system.cpu.execute: Wrapping
 194500: system.cpu.execute.lsq.storeBuffer: StoreBuffer step numUnissuedAccesses: 0
 194500: system.cpu.execute: No interrupt controller
 194500: system.cpu.execute: [tid:0] thread_interrupted?=0 isInbetweenInsts?=1
 195000: system.cpu.execute.lsq.storeBuffer: StoreBuffer step numUnissuedAccesses: 0
 195000: system.cpu.execute: No interrupt controller
 195000: system.cpu.execute: [tid:0] thread_interrupted?=0 isInbetweenInsts?=1
 195500: system.cpu.execute.lsq.storeBuffer: StoreBuffer step numUnissuedAccesses: 0
 195500: system.cpu.execute: No interrupt controller
 195500: system.cpu.execute: [tid:0] thread_interrupted?=0 isInbetweenInsts?=1
 252500: system.cpu.execute.lsq.storeBuffer: StoreBuffer step numUnissuedAccesses: 0
 252500: system.cpu.execute: No interrupt controller
 252500: system.cpu.execute: [tid:0] thread_interrupted?=0 isInbetweenInsts?=1
 253000: system.cpu.execute.lsq.storeBuffer: StoreBuffer step numUnissuedAccesses: 0
 253000: system.cpu.execute: No interrupt controller
 253000: system.cpu.execute: [tid:0] thread_interrupted?=0 isInbetweenInsts?=1
 253500: system.cpu.execute.lsq.storeBuffer: StoreBuffer step numUnissuedAccesses: 0
 253500: system.cpu.execute: No interrupt controller
 253500: system.cpu.execute: [tid:0] thread_interrupted?=0 isInbetweenInsts?=1
 254000: system.cpu.execute.lsq.storeBuffer: StoreBuffer step numUnissuedAccesses: 0
 254000: system.cpu.execute: No interrupt controller
 254000: system.cpu.execute: [tid:0] thread_interrupted?=0 isInbetweenInsts?=1
 254000: system.cpu.execute: Attempting to issue [tid:0]
 254000: system.cpu.execute:  ............... : 0/2.1/4/13.13 pc: 0x102aa (c_li) 
 254000: system.cpu.execute: Trying to issue inst: 0/2.1/4/13.13 pc: 0x102aa (c_li) to FU: 0
 254000: system.cpu.execute: Issuing inst: 0/2.1/4/13.13 pc: 0x102aa (c_li) into FU 0
 254000: system.cpu.execute.scoreboard0: Marking up inst: 0/2.1/4/13.13 pc: 0x102aa (c_li) regIndex: 6 final numResults: 1 returnCycle: 511
 254000: system.cpu.execute: Reached inst issue limit
 254000: system.cpu.execute: Stepping to next inst inputIndex: 1
 254000: system.cpu.execute: Wrapping
 254000: system.cpu.execute.lsq: No matching memory response for inst: 0/2.1/4/13.13 pc: 0x102aa (c_li)
 254500: system.cpu.execute.lsq.storeBuffer: StoreBuffer step numUnissuedAccesses: 0
 254500: system.cpu.execute: No interrupt controller
 254500: system.cpu.execute: [tid:0] thread_interrupted?=0 isInbetweenInsts?=1
 254500: system.cpu.execute: Attempting to issue [tid:0]
 254500: system.cpu.execute:  ............... : 0/2.1/4/14.14 pc: 0x102ac (c_mv) 
 254500: system.cpu.execute: Trying to issue inst: 0/2.1/4/14.14 pc: 0x102ac (c_mv) to FU: 0
 254500: system.cpu.execute: Issuing inst: 0/2.1/4/14.14 pc: 0x102ac (c_mv) into FU 0
 254500: system.cpu.execute.scoreboard0: Marking up inst: 0/2.1/4/14.14 pc: 0x102ac (c_mv) regIndex: 14 final numResults: 1 returnCycle: 512
 254500: system.cpu.execute: Reached inst issue limit
 254500: system.cpu.execute: Stepping to next inst inputIndex: 1
 254500: system.cpu.execute: Wrapping
 254500: system.cpu.execute.lsq: No matching memory response for inst: 0/2.1/4/13.13 pc: 0x102aa (c_li)
 255000: system.cpu.execute.lsq.storeBuffer: StoreBuffer step numUnissuedAccesses: 0
 255000: system.cpu.execute: No interrupt controller
 255000: system.cpu.execute: [tid:0] thread_interrupted?=0 isInbetweenInsts?=1
 255000: system.cpu.execute: Attempting to issue [tid:0]
 255000: system.cpu.execute:  ............... : 0/2.1/4/15.15 pc: 0x102ae (bgeu) 
 255000: system.cpu.execute: Trying to issue inst: 0/2.1/4/15.15 pc: 0x102ae (bgeu) to FU: 0
 255000: system.cpu.execute: Issuing inst: 0/2.1/4/15.15 pc: 0x102ae (bgeu) into FU 0
 255000: system.cpu.execute: Reached inst issue limit
 255000: system.cpu.execute: Stepping to next inst inputIndex: 1
 255000: system.cpu.execute: Wrapping
 255500: system.cpu.execute.lsq.storeBuffer: StoreBuffer step numUnissuedAccesses: 0
 255500: system.cpu.execute: No interrupt controller
 255500: system.cpu.execute: [tid:0] thread_interrupted?=0 isInbetweenInsts?=1
 255500: system.cpu.execute: Attempting to commit [tid:0]
 255500: system.cpu.execute: Committing micro-ops for interrupt[tid:0]
 255500: system.cpu.execute: Trying to commit canCommitInsts: 1
 255500: system.cpu.execute: Trying to commit from FUs
 255500: global: ExecContext setting PC: (0x102aa=>0x102ac).(0=>1)
 255500: system.cpu.execute: Committing inst: 0/2.1/4/13.13 pc: 0x102aa (c_li)
 255500: system.cpu.execute: Unstalling 0 for inst 0/2.1/4/13.13
 255500: system.cpu.execute: Completed inst: 0/2.1/4/13.13 pc: 0x102aa (c_li)
 255500: system.cpu.execute.scoreboard0: Clearing inst: 0/2.1/4/13.13 pc: 0x102aa (c_li) regIndex: 6 final numResults: 0
 255500: system.cpu.execute: Trying to commit canCommitInsts: 1
 255500: system.cpu.execute: Trying to commit from FUs
 255500: system.cpu.execute: Attempting to issue [tid:0]
 255500: system.cpu.execute:  ............... : 0/2.1/4/16.16 pc: 0x102b2 (andi) 
 255500: system.cpu.execute: Trying to issue inst: 0/2.1/4/16.16 pc: 0x102b2 (andi) to FU: 0
 255500: system.cpu.execute: Issuing inst: 0/2.1/4/16.16 pc: 0x102b2 (andi) into FU 0
 255500: system.cpu.execute.scoreboard0: Marking up inst: 0/2.1/4/16.16 pc: 0x102b2 (andi) regIndex: 15 final numResults: 1 returnCycle: 514
 255500: system.cpu.execute: Reached inst issue limit
 255500: system.cpu.execute: Stepping to next inst inputIndex: 1
 255500: system.cpu.execute: Wrapping
 256000: system.cpu.execute.lsq.storeBuffer: StoreBuffer step numUnissuedAccesses: 0
 256000: system.cpu.execute: No interrupt controller
 256000: system.cpu.execute: [tid:0] thread_interrupted?=0 isInbetweenInsts?=1
 256000: system.cpu.execute: Attempting to commit [tid:0]
 256000: system.cpu.execute: Committing micro-ops for interrupt[tid:0]
 256000: system.cpu.execute: Trying to commit canCommitInsts: 1
 256000: system.cpu.execute: Trying to commit from FUs
 256000: global: ExecContext setting PC: (0x102ac=>0x102ae).(0=>1)
 256000: system.cpu.execute: Committing inst: 0/2.1/4/14.14 pc: 0x102ac (c_mv)
 256000: system.cpu.execute: Unstalling 0 for inst 0/2.1/4/14.14
 256000: system.cpu.execute: Completed inst: 0/2.1/4/14.14 pc: 0x102ac (c_mv)
 256000: system.cpu.execute.scoreboard0: Clearing inst: 0/2.1/4/14.14 pc: 0x102ac (c_mv) regIndex: 14 final numResults: 0
 256000: system.cpu.execute: Trying to commit canCommitInsts: 1
 256000: system.cpu.execute: Trying to commit from FUs
 256000: system.cpu.execute: Attempting to issue [tid:0]
 256000: system.cpu.execute:  ............... : 0/2.1/4/17.17 pc: 0x102b6 (c_bnez) 
 256000: system.cpu.execute: Trying to issue inst: 0/2.1/4/17.17 pc: 0x102b6 (c_bnez) to FU: 0
 256000: system.cpu.execute: Issuing inst: 0/2.1/4/17.17 pc: 0x102b6 (c_bnez) into FU 0
 256000: system.cpu.execute: Reached inst issue limit
 256000: system.cpu.execute: Stepping to next inst inputIndex: 1
 256000: system.cpu.execute: Wrapping
 256500: system.cpu.execute.lsq.storeBuffer: StoreBuffer step numUnissuedAccesses: 0
 256500: system.cpu.execute: No interrupt controller
 256500: system.cpu.execute: [tid:0] thread_interrupted?=0 isInbetweenInsts?=1
 256500: system.cpu.execute: Attempting to commit [tid:0]
 256500: system.cpu.execute: Committing micro-ops for interrupt[tid:0]
 256500: system.cpu.execute: Trying to commit canCommitInsts: 1
 256500: system.cpu.execute: Trying to commit from FUs
 256500: global: ExecContext setting PC: (0x102ae=>0x102b2).(0=>1)
 256500: system.cpu.execute: Committing inst: 0/2.1/4/15.15 pc: 0x102ae (bgeu)
 256500: system.cpu.execute: Unstalling 0 for inst 0/2.1/4/15.15
 256500: system.cpu.execute: Completed inst: 0/2.1/4/15.15 pc: 0x102ae (bgeu)
 256500: system.cpu.execute: Trying to commit canCommitInsts: 1
 256500: system.cpu.execute: Trying to commit from FUs
 256500: system.cpu.execute: Attempting to issue [tid:0]
 256500: system.cpu.execute:  ............... : 0/2.1/4/18.18 pc: 0x102b8 (c_bnez) 
 256500: system.cpu.execute: Trying to issue inst: 0/2.1/4/18.18 pc: 0x102b8 (c_bnez) to FU: 0
 256500: system.cpu.execute: Issuing inst: 0/2.1/4/18.18 pc: 0x102b8 (c_bnez) into FU 0
 256500: system.cpu.execute: Reached inst issue limit
 256500: system.cpu.execute: Stepping to next inst inputIndex: 1
 256500: system.cpu.execute: Wrapping
 257000: system.cpu.execute.lsq.storeBuffer: StoreBuffer step numUnissuedAccesses: 0
 257000: system.cpu.execute: No interrupt controller
 257000: system.cpu.execute: [tid:0] thread_interrupted?=0 isInbetweenInsts?=1
 257000: system.cpu.execute: Attempting to commit [tid:0]
 257000: system.cpu.execute: Committing micro-ops for interrupt[tid:0]
 257000: system.cpu.execute: Trying to commit canCommitInsts: 1
 257000: system.cpu.execute: Trying to commit from FUs
 257000: global: ExecContext setting PC: (0x102b2=>0x102b6).(0=>1)
 257000: system.cpu.execute: Committing inst: 0/2.1/4/16.16 pc: 0x102b2 (andi)
 257000: system.cpu.execute: Unstalling 0 for inst 0/2.1/4/16.16
 257000: system.cpu.execute: Completed inst: 0/2.1/4/16.16 pc: 0x102b2 (andi)
 257000: system.cpu.execute.scoreboard0: Clearing inst: 0/2.1/4/16.16 pc: 0x102b2 (andi) regIndex: 15 final numResults: 0
 257000: system.cpu.execute: Trying to commit canCommitInsts: 1
 257000: system.cpu.execute: Trying to commit from FUs
 257000: system.cpu.execute: Attempting to issue [tid:0]
 257000: system.cpu.execute:  ............... : 0/2.1/4/19.19 pc: 0x102ba (andi) 
 257000: system.cpu.execute: Trying to issue inst: 0/2.1/4/19.19 pc: 0x102ba (andi) to FU: 0
 257000: system.cpu.execute: Issuing inst: 0/2.1/4/19.19 pc: 0x102ba (andi) into FU 0
 257000: system.cpu.execute.scoreboard0: Marking up inst: 0/2.1/4/19.19 pc: 0x102ba (andi) regIndex: 13 final numResults: 1 returnCycle: 517
 257000: system.cpu.execute: Reached inst issue limit
 257000: system.cpu.execute: Stepping to next inst inputIndex: 1
 257000: system.cpu.execute: Wrapping
 257500: system.cpu.execute.lsq.storeBuffer: StoreBuffer step numUnissuedAccesses: 0
 257500: system.cpu.execute: No interrupt controller
 257500: system.cpu.execute: [tid:0] thread_interrupted?=0 isInbetweenInsts?=1
 257500: system.cpu.execute: Attempting to commit [tid:0]
 257500: system.cpu.execute: Committing micro-ops for interrupt[tid:0]
 257500: system.cpu.execute: Trying to commit canCommitInsts: 1
 257500: system.cpu.execute: Trying to commit from FUs
 257500: global: ExecContext setting PC: (0x102b6=>0x102b8).(0=>1)
 257500: system.cpu.execute: Committing inst: 0/2.1/4/17.17 pc: 0x102b6 (c_bnez)
 257500: system.cpu.execute: Unstalling 0 for inst 0/2.1/4/17.17
 257500: system.cpu.execute: Completed inst: 0/2.1/4/17.17 pc: 0x102b6 (c_bnez)
 257500: system.cpu.execute: Trying to commit canCommitInsts: 1
 257500: system.cpu.execute: Trying to commit from FUs
 257500: system.cpu.execute: Attempting to issue [tid:0]
 257500: system.cpu.execute:  ............... : 0/2.1/4/20.20 pc: 0x102be (c_andi) 
 257500: system.cpu.execute: Trying to issue inst: 0/2.1/4/20.20 pc: 0x102be (c_andi) to FU: 0
 257500: system.cpu.execute: Issuing inst: 0/2.1/4/20.20 pc: 0x102be (c_andi) into FU 0
 257500: system.cpu.execute.scoreboard0: Marking up inst: 0/2.1/4/20.20 pc: 0x102be (c_andi) regIndex: 12 final numResults: 1 returnCycle: 518
 257500: system.cpu.execute: Reached inst issue limit
 257500: system.cpu.execute: Stepping to next inst inputIndex: 1
 257500: system.cpu.execute: Wrapping
 258000: system.cpu.execute.lsq.storeBuffer: StoreBuffer step numUnissuedAccesses: 0
 258000: system.cpu.execute: No interrupt controller
 258000: system.cpu.execute: [tid:0] thread_interrupted?=0 isInbetweenInsts?=1
 258000: system.cpu.execute: Attempting to commit [tid:0]
 258000: system.cpu.execute: Committing micro-ops for interrupt[tid:0]
 258000: system.cpu.execute: Trying to commit canCommitInsts: 1
 258000: system.cpu.execute: Trying to commit from FUs
 258000: global: ExecContext setting PC: (0x102b8=>0x102ba).(0=>1)
 258000: system.cpu.execute: Committing inst: 0/2.1/4/18.18 pc: 0x102b8 (c_bnez)
 258000: system.cpu.execute: Unstalling 0 for inst 0/2.1/4/18.18
 258000: system.cpu.execute: Completed inst: 0/2.1/4/18.18 pc: 0x102b8 (c_bnez)
 258000: system.cpu.execute: Trying to commit canCommitInsts: 1
 258000: system.cpu.execute: Trying to commit from FUs
 258500: system.cpu.execute.lsq.storeBuffer: StoreBuffer step numUnissuedAccesses: 0
 258500: system.cpu.execute: No interrupt controller
 258500: system.cpu.execute: [tid:0] thread_interrupted?=0 isInbetweenInsts?=1
 258500: system.cpu.execute: Attempting to commit [tid:0]
 258500: system.cpu.execute: Committing micro-ops for interrupt[tid:0]
 258500: system.cpu.execute: Trying to commit canCommitInsts: 1
 258500: system.cpu.execute: Trying to commit from FUs
 258500: global: ExecContext setting PC: (0x102ba=>0x102be).(0=>1)
 258500: system.cpu.execute: Committing inst: 0/2.1/4/19.19 pc: 0x102ba (andi)
 258500: system.cpu.execute: Unstalling 0 for inst 0/2.1/4/19.19
 258500: system.cpu.execute: Completed inst: 0/2.1/4/19.19 pc: 0x102ba (andi)
 258500: system.cpu.execute.scoreboard0: Clearing inst: 0/2.1/4/19.19 pc: 0x102ba (andi) regIndex: 13 final numResults: 0
 258500: system.cpu.execute: Trying to commit canCommitInsts: 1
 258500: system.cpu.execute: Trying to commit from FUs
 259000: system.cpu.execute.lsq.storeBuffer: StoreBuffer step numUnissuedAccesses: 0
 259000: system.cpu.execute: No interrupt controller
 259000: system.cpu.execute: [tid:0] thread_interrupted?=0 isInbetweenInsts?=1
 259000: system.cpu.execute: Attempting to commit [tid:0]
 259000: system.cpu.execute: Committing micro-ops for interrupt[tid:0]
 259000: system.cpu.execute: Trying to commit canCommitInsts: 1
 259000: system.cpu.execute: Trying to commit from FUs
 259000: global: ExecContext setting PC: (0x102be=>0x102c0).(0=>1)
 259000: system.cpu.execute: Committing inst: 0/2.1/4/20.20 pc: 0x102be (c_andi)
 259000: system.cpu.execute: Unstalling 0 for inst 0/2.1/4/20.20
 259000: system.cpu.execute: Completed inst: 0/2.1/4/20.20 pc: 0x102be (c_andi)
 259000: system.cpu.execute.scoreboard0: Clearing inst: 0/2.1/4/20.20 pc: 0x102be (c_andi) regIndex: 12 final numResults: 0
 310500: system.cpu.execute.lsq.storeBuffer: StoreBuffer step numUnissuedAccesses: 0
 310500: system.cpu.execute: No interrupt controller
 310500: system.cpu.execute: [tid:0] thread_interrupted?=0 isInbetweenInsts?=1
 311000: system.cpu.execute.lsq.storeBuffer: StoreBuffer step numUnissuedAccesses: 0
 311000: system.cpu.execute: No interrupt controller
 311000: system.cpu.execute: [tid:0] thread_interrupted?=0 isInbetweenInsts?=1
 311500: system.cpu.execute.lsq.storeBuffer: StoreBuffer step numUnissuedAccesses: 0
 311500: system.cpu.execute: No interrupt controller
 311500: system.cpu.execute: [tid:0] thread_interrupted?=0 isInbetweenInsts?=1
 312000: system.cpu.execute.lsq.storeBuffer: StoreBuffer step numUnissuedAccesses: 0
 312000: system.cpu.execute: No interrupt controller
 312000: system.cpu.execute: [tid:0] thread_interrupted?=0 isInbetweenInsts?=1
 312000: system.cpu.execute: Attempting to issue [tid:0]
 312000: system.cpu.execute:  ............... : 0/2.1/5/21.21 pc: 0x102c0 (c_add) 
 312000: system.cpu.execute: Trying to issue inst: 0/2.1/5/21.21 pc: 0x102c0 (c_add) to FU: 0
 312000: system.cpu.execute: Issuing inst: 0/2.1/5/21.21 pc: 0x102c0 (c_add) into FU 0
 312000: system.cpu.execute.scoreboard0: Marking up inst: 0/2.1/5/21.21 pc: 0x102c0 (c_add) regIndex: 13 final numResults: 1 returnCycle: 627
 312000: system.cpu.execute: Reached inst issue limit
 312000: system.cpu.execute: Stepping to next inst inputIndex: 1
 312000: system.cpu.execute: Wrapping
 312000: system.cpu.execute.lsq: No matching memory response for inst: 0/2.1/5/21.21 pc: 0x102c0 (c_add)
 312500: system.cpu.execute.lsq.storeBuffer: StoreBuffer step numUnissuedAccesses: 0
 312500: system.cpu.execute: No interrupt controller
 312500: system.cpu.execute: [tid:0] thread_interrupted?=0 isInbetweenInsts?=1
 312500: system.cpu.execute: Attempting to issue [tid:0]
 312500: system.cpu.execute:  ............... : 0/2.1/5/22.22 pc: 0x102c2 (c_sd) 
 312500: system.cpu.execute: Trying to issue inst: 0/2.1/5/22.22 pc: 0x102c2 (c_sd) to FU: 0
 312500: system.cpu.execute: Can't issue as FU: 0 isn't capable
 312500: system.cpu.execute: Trying to issue inst: 0/2.1/5/22.22 pc: 0x102c2 (c_sd) to FU: 1
 312500: system.cpu.execute: Can't issue as FU: 1 isn't capable
 312500: system.cpu.execute: Trying to issue inst: 0/2.1/5/22.22 pc: 0x102c2 (c_sd) to FU: 2
 312500: system.cpu.execute: Can't issue as FU: 2 isn't capable
 312500: system.cpu.execute: Trying to issue inst: 0/2.1/5/22.22 pc: 0x102c2 (c_sd) to FU: 3
 312500: system.cpu.execute: Can't issue as FU: 3 isn't capable
 312500: system.cpu.execute: Trying to issue inst: 0/2.1/5/22.22 pc: 0x102c2 (c_sd) to FU: 4
 312500: system.cpu.execute: Can't issue as FU: 4 isn't capable
 312500: system.cpu.execute: Trying to issue inst: 0/2.1/5/22.22 pc: 0x102c2 (c_sd) to FU: 5
 312500: system.cpu.execute: Issuing inst: 0/2.1/5/22.22 pc: 0x102c2 (c_sd) into FU 5
 312500: system.cpu.execute.scoreboard0: Inst: 0/2.1/5/22.22 pc: 0x102c2 (c_sd) depends on execSeqNum: 0
 312500: system.cpu.execute: Memory ref inst: 0/2.1/5/22.22 pc: 0x102c2 (c_sd) must wait for inst 0(exec) before issuing
 312500: system.cpu.execute: Pushing mem inst: 0/2.1/5/22.22 pc: 0x102c2 (c_sd)
 312500: system.cpu.execute: Reached inst issue limit
 312500: system.cpu.execute: Stepping to next inst inputIndex: 1
 312500: system.cpu.execute: Wrapping
 312500: system.cpu.execute.lsq: No matching memory response for inst: 0/2.1/5/21.21 pc: 0x102c0 (c_add)
 313000: system.cpu.execute.lsq.storeBuffer: StoreBuffer step numUnissuedAccesses: 0
 313000: system.cpu.execute: No interrupt controller
 313000: system.cpu.execute: [tid:0] thread_interrupted?=0 isInbetweenInsts?=1
 313000: system.cpu.execute: Attempting to commit [tid:0]
 313000: system.cpu.execute: Committing micro-ops for interrupt[tid:0]
 313000: system.cpu.execute: Trying to commit canCommitInsts: 1
 313000: system.cpu.execute: Trying to commit from mem FUs
 313000: system.cpu.execute: Issuing mem ref early inst: 0/2.1/5/22.22 pc: 0x102c2 (c_sd) instToWaitFor: 0
 313000: global: ExecContext setting PC: (0x102c2=>0x102c4).(0=>1)
 313000: system.cpu.execute: Initiating memRef inst: 0/2.1/5/22.22 pc: 0x102c2 (c_sd)
 313000: system.cpu.execute.lsq: Pushing request (store) addr: 0x11c80 size: 8 flags: 0x0 lineWidth : 0x40
 313000: system.cpu.execute.lsq: Setting state from NotIssued to InTranslation for request: 0/2.1/5/22.22 pc: 0x102c2 (c_sd)
 313000: system.cpu.execute.lsq: Submitting DTLB request
 313000: system.cpu.execute.lsq: Received translation response for request: 0/2.1/5/22.22 pc: 0x102c2 (c_sd)
 313000: system.cpu.execute.lsq: Setting state from InTranslation to Translated for request: 0/2.1/5/22.22 pc: 0x102c2 (c_sd)
 313000: system.cpu.execute.lsq: Setting state from Translated to StoreToStoreBuffer for request: 0/2.1/5/22.22 pc: 0x102c2 (c_sd)
 313000: system.cpu.execute.lsq: Moving store into transfers queue
 313000: system.cpu.execute: Unstalling 5 for inst 0/2.1/5/22.22
 313000: system.cpu.execute: Trying to commit canCommitInsts: 1
 313000: system.cpu.execute: Trying to commit from FUs
 313000: system.cpu.execute: Attempting to issue [tid:0]
 313000: system.cpu.execute:  ............... : 0/2.1/5/23.23 pc: 0x102c4 (c_sd) 
 313000: system.cpu.execute: Trying to issue inst: 0/2.1/5/23.23 pc: 0x102c4 (c_sd) to FU: 0
 313000: system.cpu.execute: Can't issue as FU: 0 isn't capable
 313000: system.cpu.execute: Trying to issue inst: 0/2.1/5/23.23 pc: 0x102c4 (c_sd) to FU: 1
 313000: system.cpu.execute: Can't issue as FU: 1 isn't capable
 313000: system.cpu.execute: Trying to issue inst: 0/2.1/5/23.23 pc: 0x102c4 (c_sd) to FU: 2
 313000: system.cpu.execute: Can't issue as FU: 2 isn't capable
 313000: system.cpu.execute: Trying to issue inst: 0/2.1/5/23.23 pc: 0x102c4 (c_sd) to FU: 3
 313000: system.cpu.execute: Can't issue as FU: 3 isn't capable
 313000: system.cpu.execute: Trying to issue inst: 0/2.1/5/23.23 pc: 0x102c4 (c_sd) to FU: 4
 313000: system.cpu.execute: Can't issue as FU: 4 isn't capable
 313000: system.cpu.execute: Trying to issue inst: 0/2.1/5/23.23 pc: 0x102c4 (c_sd) to FU: 5
 313000: system.cpu.execute: Issuing inst: 0/2.1/5/23.23 pc: 0x102c4 (c_sd) into FU 5
 313000: system.cpu.execute.scoreboard0: Inst: 0/2.1/5/23.23 pc: 0x102c4 (c_sd) depends on execSeqNum: 0
 313000: system.cpu.execute: Memory ref inst: 0/2.1/5/23.23 pc: 0x102c4 (c_sd) must wait for inst 0(exec) before issuing
 313000: system.cpu.execute: Pushing mem inst: 0/2.1/5/23.23 pc: 0x102c4 (c_sd)
 313000: system.cpu.execute: Reached inst issue limit
 313000: system.cpu.execute: Stepping to next inst inputIndex: 1
 313000: system.cpu.execute: Wrapping
 313500: system.cpu.execute.lsq.storeBuffer: StoreBuffer step numUnissuedAccesses: 0
 313500: system.cpu.execute: No interrupt controller
 313500: system.cpu.execute: [tid:0] thread_interrupted?=0 isInbetweenInsts?=1
 313500: system.cpu.execute: Attempting to commit [tid:0]
 313500: system.cpu.execute: Committing micro-ops for interrupt[tid:0]
 313500: system.cpu.execute: Trying to commit canCommitInsts: 1
 313500: system.cpu.execute: Trying to commit from mem FUs
 313500: system.cpu.execute: Issuing mem ref early inst: 0/2.1/5/23.23 pc: 0x102c4 (c_sd) instToWaitFor: 0
 313500: global: ExecContext setting PC: (0x102c4=>0x102c6).(0=>1)
 313500: system.cpu.execute: Initiating memRef inst: 0/2.1/5/23.23 pc: 0x102c4 (c_sd)
 313500: system.cpu.execute.lsq: Pushing request (store) addr: 0x11c88 size: 8 flags: 0x0 lineWidth : 0x40
 313500: system.cpu.execute.lsq: Setting state from NotIssued to InTranslation for request: 0/2.1/5/23.23 pc: 0x102c4 (c_sd)
 313500: system.cpu.execute.lsq: Submitting DTLB request
 313500: system.cpu.execute.lsq: Received translation response for request: 0/2.1/5/23.23 pc: 0x102c4 (c_sd)
 313500: system.cpu.execute.lsq: Setting state from InTranslation to Translated for request: 0/2.1/5/23.23 pc: 0x102c4 (c_sd)
 313500: system.cpu.execute.lsq: Setting state from Translated to StoreToStoreBuffer for request: 0/2.1/5/23.23 pc: 0x102c4 (c_sd)
 313500: system.cpu.execute.lsq: Moving store into transfers queue
 313500: system.cpu.execute: Unstalling 5 for inst 0/2.1/5/23.23
 313500: system.cpu.execute: Trying to commit canCommitInsts: 1
 313500: system.cpu.execute: Trying to commit from FUs
 313500: global: ExecContext setting PC: (0x102c0=>0x102c2).(0=>1)
 313500: system.cpu.execute: Committing inst: 0/2.1/5/21.21 pc: 0x102c0 (c_add)
 313500: system.cpu.execute: Unstalling 0 for inst 0/2.1/5/21.21
 313500: system.cpu.execute: Completed inst: 0/2.1/5/21.21 pc: 0x102c0 (c_add)
 313500: system.cpu.execute.scoreboard0: Clearing inst: 0/2.1/5/21.21 pc: 0x102c0 (c_add) regIndex: 13 final numResults: 0
 313500: system.cpu.execute.lsq: Found matching memory response for inst: 0/2.1/5/22.22 pc: 0x102c2 (c_sd)
 313500: system.cpu.execute: Trying to commit canCommitInsts: 1
 313500: system.cpu.execute: Trying to commit mem response: 0/2.1/5/22.22 pc: 0x102c2 (c_sd)
 313500: global: ExecContext setting PC: (0x102c2=>0x102c4).(0=>1)
 313500: system.cpu.execute: Memory response inst: 0/2.1/5/22.22 pc: 0x102c2 (c_sd) addr: 0x1c80 size: 8
 313500: system.cpu.execute.lsq: Sending store: 0/2.1/5/22.22 pc: 0x102c2 (c_sd) to store buffer
 313500: system.cpu.execute.lsq.storeBuffer: Pushing store: 0x4b03900 into store buffer
 313500: system.cpu.execute.lsq: Setting state from StoreToStoreBuffer to StoreInStoreBuffer for request: 0/2.1/5/22.22 pc: 0x102c2 (c_sd)
 313500: system.cpu.execute: Completed inst: 0/2.1/5/22.22 pc: 0x102c2 (c_sd)
 313500: system.cpu.execute: Reached inst commit limit
 313500: system.cpu.execute: Reached mem ref commit limit
 313500: system.cpu.execute: Attempting to issue [tid:0]
 313500: system.cpu.execute:  ............... : 0/2.1/5/24.24 pc: 0x102c6 (c_addi) 
 313500: system.cpu.execute: Trying to issue inst: 0/2.1/5/24.24 pc: 0x102c6 (c_addi) to FU: 0
 313500: system.cpu.execute: Issuing inst: 0/2.1/5/24.24 pc: 0x102c6 (c_addi) into FU 0
 313500: system.cpu.execute.scoreboard0: Marking up inst: 0/2.1/5/24.24 pc: 0x102c6 (c_addi) regIndex: 14 final numResults: 1 returnCycle: 630
 313500: system.cpu.execute: Reached inst issue limit
 313500: system.cpu.execute: Stepping to next inst inputIndex: 1
 313500: system.cpu.execute: Wrapping
 313500: system.cpu.execute.lsq: Found matching memory response for inst: 0/2.1/5/23.23 pc: 0x102c4 (c_sd)
 314000: system.cpu.execute.lsq.storeBuffer: StoreBuffer step numUnissuedAccesses: 1
 314000: system.cpu.execute.lsq.storeBuffer: Considering request: 0/2.1/5/22.22 pc: 0x102c2 (c_sd), sentAllPackets: 0 state: StoreInStoreBuffer
 314000: system.cpu.execute.lsq.storeBuffer: Trying to send request: 0/2.1/5/22.22 pc: 0x102c2 (c_sd) to memory system
 314000: system.cpu.execute.lsq: Trying to send request: 0/2.1/5/22.22 pc: 0x102c2 (c_sd) addr: 0x11c80
 314000: system.cpu.execute.lsq: Sent data memory request
 314000: system.cpu.execute.lsq: Setting state from StoreInStoreBuffer to StoreBufferIssuing for request: 0/2.1/5/22.22 pc: 0x102c2 (c_sd)
 314000: system.cpu.execute: No interrupt controller
 314000: system.cpu.execute: [tid:0] thread_interrupted?=0 isInbetweenInsts?=1
 314000: system.cpu.execute.lsq: Found matching memory response for inst: 0/2.1/5/23.23 pc: 0x102c4 (c_sd)
 314000: system.cpu.execute: Attempting to commit [tid:0]
 314000: system.cpu.execute: Committing micro-ops for interrupt[tid:0]
 314000: system.cpu.execute.lsq: Found matching memory response for inst: 0/2.1/5/23.23 pc: 0x102c4 (c_sd)
 314000: system.cpu.execute: Trying to commit canCommitInsts: 1
 314000: system.cpu.execute: Trying to commit mem response: 0/2.1/5/23.23 pc: 0x102c4 (c_sd)
 314000: global: ExecContext setting PC: (0x102c4=>0x102c6).(0=>1)
 314000: system.cpu.execute: Memory response inst: 0/2.1/5/23.23 pc: 0x102c4 (c_sd) addr: 0x1c88 size: 8
 314000: system.cpu.execute.lsq: Sending store: 0/2.1/5/23.23 pc: 0x102c4 (c_sd) to store buffer
 314000: system.cpu.execute.lsq.storeBuffer: Pushing store: 0x4b03b00 into store buffer
 314000: system.cpu.execute.lsq: Setting state from StoreToStoreBuffer to StoreInStoreBuffer for request: 0/2.1/5/23.23 pc: 0x102c4 (c_sd)
 314000: system.cpu.execute: Completed inst: 0/2.1/5/23.23 pc: 0x102c4 (c_sd)
 314000: system.cpu.execute: Reached mem ref commit limit
 314000: system.cpu.execute: Trying to commit canCommitInsts: 1
 314000: system.cpu.execute: Trying to commit from FUs
 314000: system.cpu.execute: Attempting to issue [tid:0]
 314000: system.cpu.execute:  ............... : 0/2.1/5/25.25 pc: 0x102c8 (bltu) 
 314000: system.cpu.execute: Trying to issue inst: 0/2.1/5/25.25 pc: 0x102c8 (bltu) to FU: 0
 314000: system.cpu.execute: Issuing inst: 0/2.1/5/25.25 pc: 0x102c8 (bltu) into FU 0
 314000: system.cpu.execute: Reached inst issue limit
 314000: system.cpu.execute: Stepping to next inst inputIndex: 1
 314000: system.cpu.execute: Wrapping
 314000: system.cpu.execute.lsq: No matching memory response for inst: 0/2.1/5/24.24 pc: 0x102c6 (c_addi)
 314500: system.cpu.execute.lsq.storeBuffer: StoreBuffer step numUnissuedAccesses: 1
 314500: system.cpu.execute.lsq.storeBuffer: Considering request: 0/2.1/5/22.22 pc: 0x102c2 (c_sd), sentAllPackets: 1 state: StoreBufferIssuing
 314500: system.cpu.execute.lsq.storeBuffer: Considering request: 0/2.1/5/23.23 pc: 0x102c4 (c_sd), sentAllPackets: 0 state: StoreInStoreBuffer
 314500: system.cpu.execute.lsq.storeBuffer: Trying to send request: 0/2.1/5/23.23 pc: 0x102c4 (c_sd) to memory system
 314500: system.cpu.execute.lsq: Trying to send request: 0/2.1/5/23.23 pc: 0x102c4 (c_sd) addr: 0x11c88
 314500: system.cpu.execute.lsq: Sent data memory request
 314500: system.cpu.execute.lsq: Setting state from StoreInStoreBuffer to StoreBufferIssuing for request: 0/2.1/5/23.23 pc: 0x102c4 (c_sd)
 314500: system.cpu.execute: No interrupt controller
 314500: system.cpu.execute: [tid:0] thread_interrupted?=0 isInbetweenInsts?=1
 314500: system.cpu.execute: Attempting to issue [tid:0]
 314500: system.cpu.execute:  ............... : 0/2.1/5/26.26 pc: 0x102cc (c_bnez) 
 314500: system.cpu.execute: Trying to issue inst: 0/2.1/5/26.26 pc: 0x102cc (c_bnez) to FU: 0
 314500: system.cpu.execute: Issuing inst: 0/2.1/5/26.26 pc: 0x102cc (c_bnez) into FU 0
 314500: system.cpu.execute: Reached inst issue limit
 314500: system.cpu.execute: Stepping to next inst inputIndex: 1
 314500: system.cpu.execute: Wrapping
 315000: system.cpu.execute.lsq.storeBuffer: StoreBuffer step numUnissuedAccesses: 0
 315000: system.cpu.execute: No interrupt controller
 315000: system.cpu.execute: [tid:0] thread_interrupted?=0 isInbetweenInsts?=1
 315000: system.cpu.execute: Attempting to commit [tid:0]
 315000: system.cpu.execute: Committing micro-ops for interrupt[tid:0]
 315000: system.cpu.execute: Trying to commit canCommitInsts: 1
 315000: system.cpu.execute: Trying to commit from FUs
 315000: global: ExecContext setting PC: (0x102c6=>0x102c8).(0=>1)
 315000: system.cpu.execute: Committing inst: 0/2.1/5/24.24 pc: 0x102c6 (c_addi)
 315000: system.cpu.execute: Unstalling 0 for inst 0/2.1/5/24.24
 315000: system.cpu.execute: Completed inst: 0/2.1/5/24.24 pc: 0x102c6 (c_addi)
 315000: system.cpu.execute.scoreboard0: Clearing inst: 0/2.1/5/24.24 pc: 0x102c6 (c_addi) regIndex: 14 final numResults: 0
 315000: system.cpu.execute: Trying to commit canCommitInsts: 1
 315000: system.cpu.execute: Trying to commit from FUs
 315000: system.cpu.execute: Attempting to issue [tid:0]
 315000: system.cpu.execute:  ............... : 0/2.1/5/27.27 pc: 0x102ce (c_jr) 
 315000: system.cpu.execute: Trying to issue inst: 0/2.1/5/27.27 pc: 0x102ce (c_jr) to FU: 0
 315000: system.cpu.execute: Issuing inst: 0/2.1/5/27.27 pc: 0x102ce (c_jr) into FU 0
 315000: system.cpu.execute: Reached inst issue limit
 315000: system.cpu.execute: Stepping to next inst inputIndex: 1
 315000: system.cpu.execute: Wrapping
 315500: system.cpu.execute.lsq.storeBuffer: StoreBuffer step numUnissuedAccesses: 0
 315500: system.cpu.execute: No interrupt controller
 315500: system.cpu.execute: [tid:0] thread_interrupted?=0 isInbetweenInsts?=1
 315500: system.cpu.execute: Attempting to commit [tid:0]
 315500: system.cpu.execute: Committing micro-ops for interrupt[tid:0]
 315500: system.cpu.execute: Trying to commit canCommitInsts: 1
 315500: system.cpu.execute: Trying to commit from FUs
 315500: global: ExecContext setting PC: (0x102c8=>0x102cc).(0=>1)
 315500: system.cpu.execute: Committing inst: 0/2.1/5/25.25 pc: 0x102c8 (bltu)
 315500: system.cpu.execute: Unstalling 0 for inst 0/2.1/5/25.25
 315500: system.cpu.execute: Completed inst: 0/2.1/5/25.25 pc: 0x102c8 (bltu)
 315500: system.cpu.execute: Attempting to issue [tid:0]
 315500: system.cpu.execute:  ............... : 0/2.1/5/28.28 pc: 0x102d0 (sub) 
 315500: system.cpu.execute: Discarding inst: 0/2.1/5/28.28 pc: 0x102d0 (sub) as its stream state was unexpected, expected: 3
 315500: system.cpu.execute: Stepping to next inst inputIndex: 1
 315500: system.cpu.execute: Wrapping
 316000: system.cpu.execute.lsq.storeBuffer: StoreBuffer step numUnissuedAccesses: 0
 316000: system.cpu.execute: No interrupt controller
 316000: system.cpu.execute: [tid:0] thread_interrupted?=0 isInbetweenInsts?=1
 316000: system.cpu.execute: Attempting to commit [tid:0]
 316000: system.cpu.execute: Committing micro-ops for interrupt[tid:0]
 316000: system.cpu.execute: Trying to commit canCommitInsts: 1
 316000: system.cpu.execute: Trying to commit from FUs
 316000: system.cpu.execute: Unstalling 0 for inst 0/2.1/5/26.26
 316000: system.cpu.execute: Discarding inst: 0/2.1/5/26.26 pc: 0x102cc (c_bnez) as its stream state was unexpected, expected: 3
 316000: system.cpu.execute: Completed inst: 0/2.1/5/26.26 pc: 0x102cc (c_bnez)
 316000: system.cpu.execute: Trying to commit canCommitInsts: 1
 316000: system.cpu.execute: Trying to commit from FUs
 316000: system.cpu.execute: Attempting to issue [tid:0]
 316000: system.cpu.execute:  ............... : 0/2.1/5/29.29 pc: 0x102d4 (c_slli) 
 316000: system.cpu.execute: Discarding inst: 0/2.1/5/29.29 pc: 0x102d4 (c_slli) as its stream state was unexpected, expected: 3
 316000: system.cpu.execute: Stepping to next inst inputIndex: 1
 316000: system.cpu.execute: Wrapping
 316500: system.cpu.execute.lsq.storeBuffer: StoreBuffer step numUnissuedAccesses: 0
 316500: system.cpu.execute: No interrupt controller
 316500: system.cpu.execute: [tid:0] thread_interrupted?=0 isInbetweenInsts?=1
 316500: system.cpu.execute: Attempting to commit [tid:0]
 316500: system.cpu.execute: Committing micro-ops for interrupt[tid:0]
 316500: system.cpu.execute: Trying to commit canCommitInsts: 1
 316500: system.cpu.execute: Trying to commit from FUs
 316500: system.cpu.execute: Unstalling 0 for inst 0/2.1/5/27.27
 316500: system.cpu.execute: Discarding inst: 0/2.1/5/27.27 pc: 0x102ce (c_jr) as its stream state was unexpected, expected: 3
 316500: system.cpu.execute: Completed inst: 0/2.1/5/27.27 pc: 0x102ce (c_jr)
 316500: system.cpu.execute: Attempting to issue [tid:0]
 316500: system.cpu.execute:  ............... : 0/2.1/5/30.30 pc: 0x102d6 (auipc) 
 316500: system.cpu.execute: Discarding inst: 0/2.1/5/30.30 pc: 0x102d6 (auipc) as its stream state was unexpected, expected: 3
 316500: system.cpu.execute: Stepping to next inst inputIndex: 1
 316500: system.cpu.execute: Wrapping
 368500: system.cpu.execute.lsq.storeBuffer: StoreBuffer step numUnissuedAccesses: 0
 368500: system.cpu.execute: No interrupt controller
 368500: system.cpu.execute: [tid:0] thread_interrupted?=0 isInbetweenInsts?=1
 369000: system.cpu.execute.lsq.storeBuffer: StoreBuffer step numUnissuedAccesses: 0
 369000: system.cpu.execute: No interrupt controller
 369000: system.cpu.execute: [tid:0] thread_interrupted?=0 isInbetweenInsts?=1
 369500: system.cpu.execute.lsq.storeBuffer: StoreBuffer step numUnissuedAccesses: 0
 369500: system.cpu.execute: No interrupt controller
 369500: system.cpu.execute: [tid:0] thread_interrupted?=0 isInbetweenInsts?=1
 370500: system.cpu.execute.lsq.storeBuffer: StoreBuffer step numUnissuedAccesses: 0
 370500: system.cpu.execute: No interrupt controller
 370500: system.cpu.execute: [tid:0] thread_interrupted?=0 isInbetweenInsts?=1
 371000: system.cpu.execute.lsq.storeBuffer: StoreBuffer step numUnissuedAccesses: 0
 371000: system.cpu.execute: No interrupt controller
 371000: system.cpu.execute: [tid:0] thread_interrupted?=0 isInbetweenInsts?=1
 371500: system.cpu.execute.lsq.storeBuffer: StoreBuffer step numUnissuedAccesses: 0
 371500: system.cpu.execute: No interrupt controller
 371500: system.cpu.execute: [tid:0] thread_interrupted?=0 isInbetweenInsts?=1
 372000: system.cpu.execute.lsq.storeBuffer: StoreBuffer step numUnissuedAccesses: 0
 372000: system.cpu.execute: No interrupt controller
 372000: system.cpu.execute: [tid:0] thread_interrupted?=0 isInbetweenInsts?=1
 372000: system.cpu.execute: Attempting to issue [tid:0]
 372000: system.cpu.execute:  ............... : 0/3.1/7/31.31 pc: 0x102c2 (c_sd) 
 372000: system.cpu.execute: Trying to issue inst: 0/3.1/7/31.31 pc: 0x102c2 (c_sd) to FU: 0
 372000: system.cpu.execute: Can't issue as FU: 0 isn't capable
 372000: system.cpu.execute: Trying to issue inst: 0/3.1/7/31.31 pc: 0x102c2 (c_sd) to FU: 1
 372000: system.cpu.execute: Can't issue as FU: 1 isn't capable
 372000: system.cpu.execute: Trying to issue inst: 0/3.1/7/31.31 pc: 0x102c2 (c_sd) to FU: 2
 372000: system.cpu.execute: Can't issue as FU: 2 isn't capable
 372000: system.cpu.execute: Trying to issue inst: 0/3.1/7/31.31 pc: 0x102c2 (c_sd) to FU: 3
 372000: system.cpu.execute: Can't issue as FU: 3 isn't capable
 372000: system.cpu.execute: Trying to issue inst: 0/3.1/7/31.31 pc: 0x102c2 (c_sd) to FU: 4
 372000: system.cpu.execute: Can't issue as FU: 4 isn't capable
 372000: system.cpu.execute: Trying to issue inst: 0/3.1/7/31.31 pc: 0x102c2 (c_sd) to FU: 5
 372000: system.cpu.execute: Issuing inst: 0/3.1/7/31.31 pc: 0x102c2 (c_sd) into FU 5
 372000: system.cpu.execute.scoreboard0: Inst: 0/3.1/7/31.31 pc: 0x102c2 (c_sd) depends on execSeqNum: 0
 372000: system.cpu.execute: Memory ref inst: 0/3.1/7/31.31 pc: 0x102c2 (c_sd) must wait for inst 0(exec) before issuing
 372000: system.cpu.execute: Pushing mem inst: 0/3.1/7/31.31 pc: 0x102c2 (c_sd)
 372000: system.cpu.execute: Reached inst issue limit
 372000: system.cpu.execute: Stepping to next inst inputIndex: 1
 372000: system.cpu.execute: Wrapping
 372500: system.cpu.execute.lsq.storeBuffer: StoreBuffer step numUnissuedAccesses: 0
 372500: system.cpu.execute: No interrupt controller
 372500: system.cpu.execute: [tid:0] thread_interrupted?=0 isInbetweenInsts?=1
 372500: system.cpu.execute: Attempting to commit [tid:0]
 372500: system.cpu.execute: Committing micro-ops for interrupt[tid:0]
 372500: system.cpu.execute: Trying to commit canCommitInsts: 1
 372500: system.cpu.execute: Trying to commit from mem FUs
 372500: system.cpu.execute: Issuing mem ref early inst: 0/3.1/7/31.31 pc: 0x102c2 (c_sd) instToWaitFor: 0
 372500: global: ExecContext setting PC: (0x102c2=>0x102c4).(0=>1)
 372500: system.cpu.execute: Initiating memRef inst: 0/3.1/7/31.31 pc: 0x102c2 (c_sd)
 372500: system.cpu.execute.lsq: Pushing request (store) addr: 0x11c90 size: 8 flags: 0x0 lineWidth : 0x40
 372500: system.cpu.execute.lsq: Setting state from NotIssued to InTranslation for request: 0/3.1/7/31.31 pc: 0x102c2 (c_sd)
 372500: system.cpu.execute.lsq: Submitting DTLB request
 372500: system.cpu.execute.lsq: Received translation response for request: 0/3.1/7/31.31 pc: 0x102c2 (c_sd)
 372500: system.cpu.execute.lsq: Setting state from InTranslation to Translated for request: 0/3.1/7/31.31 pc: 0x102c2 (c_sd)
 372500: system.cpu.execute.lsq: Setting state from Translated to StoreToStoreBuffer for request: 0/3.1/7/31.31 pc: 0x102c2 (c_sd)
 372500: system.cpu.execute.lsq: Moving store into transfers queue
 372500: system.cpu.execute: Unstalling 5 for inst 0/3.1/7/31.31
 372500: system.cpu.execute.lsq: Found matching memory response for inst: 0/3.1/7/31.31 pc: 0x102c2 (c_sd)
 372500: system.cpu.execute: Trying to commit canCommitInsts: 1
 372500: system.cpu.execute: Trying to commit mem response: 0/3.1/7/31.31 pc: 0x102c2 (c_sd)
 372500: global: ExecContext setting PC: (0x102c2=>0x102c4).(0=>1)
 372500: system.cpu.execute: Memory response inst: 0/3.1/7/31.31 pc: 0x102c2 (c_sd) addr: 0x1c90 size: 8
 372500: system.cpu.execute.lsq: Sending store: 0/3.1/7/31.31 pc: 0x102c2 (c_sd) to store buffer
 372500: system.cpu.execute.lsq.storeBuffer: Pushing store: 0x4b03c00 into store buffer
 372500: system.cpu.execute.lsq: Setting state from StoreToStoreBuffer to StoreInStoreBuffer for request: 0/3.1/7/31.31 pc: 0x102c2 (c_sd)
 372500: system.cpu.execute: Completed inst: 0/3.1/7/31.31 pc: 0x102c2 (c_sd)
 372500: system.cpu.execute: Reached mem ref commit limit
 372500: system.cpu.execute: Attempting to issue [tid:0]
 372500: system.cpu.execute:  ............... : 0/3.1/7/32.32 pc: 0x102c4 (c_sd) 
 372500: system.cpu.execute: Trying to issue inst: 0/3.1/7/32.32 pc: 0x102c4 (c_sd) to FU: 0
 372500: system.cpu.execute: Can't issue as FU: 0 isn't capable
 372500: system.cpu.execute: Trying to issue inst: 0/3.1/7/32.32 pc: 0x102c4 (c_sd) to FU: 1
 372500: system.cpu.execute: Can't issue as FU: 1 isn't capable
 372500: system.cpu.execute: Trying to issue inst: 0/3.1/7/32.32 pc: 0x102c4 (c_sd) to FU: 2
 372500: system.cpu.execute: Can't issue as FU: 2 isn't capable
 372500: system.cpu.execute: Trying to issue inst: 0/3.1/7/32.32 pc: 0x102c4 (c_sd) to FU: 3
 372500: system.cpu.execute: Can't issue as FU: 3 isn't capable
 372500: system.cpu.execute: Trying to issue inst: 0/3.1/7/32.32 pc: 0x102c4 (c_sd) to FU: 4
 372500: system.cpu.execute: Can't issue as FU: 4 isn't capable
 372500: system.cpu.execute: Trying to issue inst: 0/3.1/7/32.32 pc: 0x102c4 (c_sd) to FU: 5
 372500: system.cpu.execute: Issuing inst: 0/3.1/7/32.32 pc: 0x102c4 (c_sd) into FU 5
 372500: system.cpu.execute.scoreboard0: Inst: 0/3.1/7/32.32 pc: 0x102c4 (c_sd) depends on execSeqNum: 0
 372500: system.cpu.execute: Memory ref inst: 0/3.1/7/32.32 pc: 0x102c4 (c_sd) must wait for inst 0(exec) before issuing
 372500: system.cpu.execute: Pushing mem inst: 0/3.1/7/32.32 pc: 0x102c4 (c_sd)
 372500: system.cpu.execute: Reached inst issue limit
 372500: system.cpu.execute: Stepping to next inst inputIndex: 1
 372500: system.cpu.execute: Wrapping
 373000: system.cpu.execute.lsq: Received response packet inst: 0/2.1/5/22.22 pc: 0x102c2 (c_sd) addr: 0x1c80 cmd: WriteResp
 373000: system.cpu.execute.lsq: Retiring packet
 373000: system.cpu.execute.lsq: Setting state from StoreBufferIssuing to Complete for request: 0/2.1/5/22.22 pc: 0x102c2 (c_sd)
 373000: system.cpu.execute.lsq.storeBuffer: Deleting request: 0x4b03900 0x4b03900 0/2.1/5/22.22 pc: 0x102c2 (c_sd) from StoreBuffer
 373000: system.cpu.execute.lsq.storeBuffer: StoreBuffer step numUnissuedAccesses: 1
 373000: system.cpu.execute.lsq.storeBuffer: Considering request: 0/2.1/5/23.23 pc: 0x102c4 (c_sd), sentAllPackets: 1 state: StoreBufferIssuing
 373000: system.cpu.execute.lsq.storeBuffer: Considering request: 0/3.1/7/31.31 pc: 0x102c2 (c_sd), sentAllPackets: 0 state: StoreInStoreBuffer
 373000: system.cpu.execute.lsq.storeBuffer: Trying to send request: 0/3.1/7/31.31 pc: 0x102c2 (c_sd) to memory system
 373000: system.cpu.execute.lsq: Trying to send request: 0/3.1/7/31.31 pc: 0x102c2 (c_sd) addr: 0x11c90
 373000: system.cpu.execute.lsq: Sent data memory request
 373000: system.cpu.execute.lsq: Setting state from StoreInStoreBuffer to StoreBufferIssuing for request: 0/3.1/7/31.31 pc: 0x102c2 (c_sd)
 373000: system.cpu.execute: No interrupt controller
 373000: system.cpu.execute: [tid:0] thread_interrupted?=0 isInbetweenInsts?=1
 373000: system.cpu.execute: Attempting to commit [tid:0]
 373000: system.cpu.execute: Committing micro-ops for interrupt[tid:0]
 373000: system.cpu.execute: Trying to commit canCommitInsts: 1
 373000: system.cpu.execute: Trying to commit from mem FUs
 373000: system.cpu.execute: Issuing mem ref early inst: 0/3.1/7/32.32 pc: 0x102c4 (c_sd) instToWaitFor: 0
 373000: global: ExecContext setting PC: (0x102c4=>0x102c6).(0=>1)
 373000: system.cpu.execute: Initiating memRef inst: 0/3.1/7/32.32 pc: 0x102c4 (c_sd)
 373000: system.cpu.execute.lsq: Pushing request (store) addr: 0x11c98 size: 8 flags: 0x0 lineWidth : 0x40
 373000: system.cpu.execute.lsq: Setting state from NotIssued to InTranslation for request: 0/3.1/7/32.32 pc: 0x102c4 (c_sd)
 373000: system.cpu.execute.lsq: Submitting DTLB request
 373000: system.cpu.execute.lsq: Received translation response for request: 0/3.1/7/32.32 pc: 0x102c4 (c_sd)
 373000: system.cpu.execute.lsq: Setting state from InTranslation to Translated for request: 0/3.1/7/32.32 pc: 0x102c4 (c_sd)
 373000: system.cpu.execute.lsq: Setting state from Translated to StoreToStoreBuffer for request: 0/3.1/7/32.32 pc: 0x102c4 (c_sd)
 373000: system.cpu.execute.lsq: Moving store into transfers queue
 373000: system.cpu.execute: Unstalling 5 for inst 0/3.1/7/32.32
 373000: system.cpu.execute.lsq: Found matching memory response for inst: 0/3.1/7/32.32 pc: 0x102c4 (c_sd)
 373000: system.cpu.execute: Trying to commit canCommitInsts: 1
 373000: system.cpu.execute: Trying to commit mem response: 0/3.1/7/32.32 pc: 0x102c4 (c_sd)
 373000: global: ExecContext setting PC: (0x102c4=>0x102c6).(0=>1)
 373000: system.cpu.execute: Memory response inst: 0/3.1/7/32.32 pc: 0x102c4 (c_sd) addr: 0x1c98 size: 8
 373000: system.cpu.execute.lsq: Sending store: 0/3.1/7/32.32 pc: 0x102c4 (c_sd) to store buffer
 373000: system.cpu.execute.lsq.storeBuffer: Pushing store: 0x4b03900 into store buffer
 373000: system.cpu.execute.lsq: Setting state from StoreToStoreBuffer to StoreInStoreBuffer for request: 0/3.1/7/32.32 pc: 0x102c4 (c_sd)
 373000: system.cpu.execute: Completed inst: 0/3.1/7/32.32 pc: 0x102c4 (c_sd)
 373000: system.cpu.execute: Reached mem ref commit limit
 373000: system.cpu.execute: Attempting to issue [tid:0]
 373000: system.cpu.execute:  ............... : 0/3.1/7/33.33 pc: 0x102c6 (c_addi) 
 373000: system.cpu.execute: Trying to issue inst: 0/3.1/7/33.33 pc: 0x102c6 (c_addi) to FU: 0
 373000: system.cpu.execute: Issuing inst: 0/3.1/7/33.33 pc: 0x102c6 (c_addi) into FU 0
 373000: system.cpu.execute.scoreboard0: Marking up inst: 0/3.1/7/33.33 pc: 0x102c6 (c_addi) regIndex: 14 final numResults: 1 returnCycle: 749
 373000: system.cpu.execute: Reached inst issue limit
 373000: system.cpu.execute: Stepping to next inst inputIndex: 1
 373000: system.cpu.execute: Wrapping
 373000: system.cpu.execute.lsq: No matching memory response for inst: 0/3.1/7/33.33 pc: 0x102c6 (c_addi)
 373500: system.cpu.execute.lsq.storeBuffer: StoreBuffer step numUnissuedAccesses: 1
 373500: system.cpu.execute.lsq.storeBuffer: Considering request: 0/2.1/5/23.23 pc: 0x102c4 (c_sd), sentAllPackets: 1 state: StoreBufferIssuing
 373500: system.cpu.execute.lsq.storeBuffer: Considering request: 0/3.1/7/31.31 pc: 0x102c2 (c_sd), sentAllPackets: 1 state: StoreBufferIssuing
 373500: system.cpu.execute.lsq.storeBuffer: Considering request: 0/3.1/7/32.32 pc: 0x102c4 (c_sd), sentAllPackets: 0 state: StoreInStoreBuffer
 373500: system.cpu.execute.lsq.storeBuffer: Trying to send request: 0/3.1/7/32.32 pc: 0x102c4 (c_sd) to memory system
 373500: system.cpu.execute.lsq: Trying to send request: 0/3.1/7/32.32 pc: 0x102c4 (c_sd) addr: 0x11c98
 373500: system.cpu.execute.lsq: Sent data memory request
 373500: system.cpu.execute.lsq: Setting state from StoreInStoreBuffer to StoreBufferIssuing for request: 0/3.1/7/32.32 pc: 0x102c4 (c_sd)
 373500: system.cpu.execute: No interrupt controller
 373500: system.cpu.execute: [tid:0] thread_interrupted?=0 isInbetweenInsts?=1
 373500: system.cpu.execute: Attempting to issue [tid:0]
 373500: system.cpu.execute:  ............... : 0/3.1/7/34.34 pc: 0x102c8 (bltu) 
 373500: system.cpu.execute: Trying to issue inst: 0/3.1/7/34.34 pc: 0x102c8 (bltu) to FU: 0
 373500: system.cpu.execute: Issuing inst: 0/3.1/7/34.34 pc: 0x102c8 (bltu) into FU 0
 373500: system.cpu.execute: Reached inst issue limit
 373500: system.cpu.execute: Stepping to next inst inputIndex: 1
 373500: system.cpu.execute: Wrapping
 373500: system.cpu.execute.lsq: No matching memory response for inst: 0/3.1/7/33.33 pc: 0x102c6 (c_addi)
 374000: system.cpu.execute.lsq.storeBuffer: StoreBuffer step numUnissuedAccesses: 0
 374000: system.cpu.execute: No interrupt controller
 374000: system.cpu.execute: [tid:0] thread_interrupted?=0 isInbetweenInsts?=1
 374000: system.cpu.execute: Attempting to issue [tid:0]
 374000: system.cpu.execute:  ............... : 0/3.1/7/35.35 pc: 0x102cc (c_bnez) 
 374000: system.cpu.execute: Trying to issue inst: 0/3.1/7/35.35 pc: 0x102cc (c_bnez) to FU: 0
 374000: system.cpu.execute: Issuing inst: 0/3.1/7/35.35 pc: 0x102cc (c_bnez) into FU 0
 374000: system.cpu.execute: Reached inst issue limit
 374000: system.cpu.execute: Stepping to next inst inputIndex: 1
 374000: system.cpu.execute: Wrapping
 374500: system.cpu.execute.lsq.storeBuffer: StoreBuffer step numUnissuedAccesses: 0
 374500: system.cpu.execute: No interrupt controller
 374500: system.cpu.execute: [tid:0] thread_interrupted?=0 isInbetweenInsts?=1
 374500: system.cpu.execute: Attempting to commit [tid:0]
 374500: system.cpu.execute: Committing micro-ops for interrupt[tid:0]
 374500: system.cpu.execute: Trying to commit canCommitInsts: 1
 374500: system.cpu.execute: Trying to commit from FUs
 374500: global: ExecContext setting PC: (0x102c6=>0x102c8).(0=>1)
 374500: system.cpu.execute: Committing inst: 0/3.1/7/33.33 pc: 0x102c6 (c_addi)
 374500: system.cpu.execute: Unstalling 0 for inst 0/3.1/7/33.33
 374500: system.cpu.execute: Completed inst: 0/3.1/7/33.33 pc: 0x102c6 (c_addi)
 374500: system.cpu.execute.scoreboard0: Clearing inst: 0/3.1/7/33.33 pc: 0x102c6 (c_addi) regIndex: 14 final numResults: 0
 374500: system.cpu.execute: Trying to commit canCommitInsts: 1
 374500: system.cpu.execute: Trying to commit from FUs
 374500: system.cpu.execute: Attempting to issue [tid:0]
 374500: system.cpu.execute:  ............... : 0/3.1/7/36.36 pc: 0x102ce (c_jr) 
 374500: system.cpu.execute: Trying to issue inst: 0/3.1/7/36.36 pc: 0x102ce (c_jr) to FU: 0
 374500: system.cpu.execute: Issuing inst: 0/3.1/7/36.36 pc: 0x102ce (c_jr) into FU 0
 374500: system.cpu.execute: Reached inst issue limit
 374500: system.cpu.execute: Stepping to next inst inputIndex: 1
 374500: system.cpu.execute: Wrapping
 375000: system.cpu.execute.lsq.storeBuffer: StoreBuffer step numUnissuedAccesses: 0
 375000: system.cpu.execute: No interrupt controller
 375000: system.cpu.execute: [tid:0] thread_interrupted?=0 isInbetweenInsts?=1
 375000: system.cpu.execute: Attempting to commit [tid:0]
 375000: system.cpu.execute: Committing micro-ops for interrupt[tid:0]
 375000: system.cpu.execute: Trying to commit canCommitInsts: 1
 375000: system.cpu.execute: Trying to commit from FUs
 375000: global: ExecContext setting PC: (0x102c8=>0x102cc).(0=>1)
 375000: system.cpu.execute: Committing inst: 0/3.1/7/34.34 pc: 0x102c8 (bltu)
 375000: system.cpu.execute: Unstalling 0 for inst 0/3.1/7/34.34
 375000: system.cpu.execute: Completed inst: 0/3.1/7/34.34 pc: 0x102c8 (bltu)
 375000: system.cpu.execute: Attempting to issue [tid:0]
 375000: system.cpu.execute:  ............... : 0/3.1/7/37.37 pc: 0x102d0 (sub) 
 375000: system.cpu.execute: Discarding inst: 0/3.1/7/37.37 pc: 0x102d0 (sub) as its stream state was unexpected, expected: 4
 375000: system.cpu.execute: Stepping to next inst inputIndex: 1
 375000: system.cpu.execute: Wrapping
 375500: system.cpu.execute.lsq.storeBuffer: StoreBuffer step numUnissuedAccesses: 0
 375500: system.cpu.execute: No interrupt controller
 375500: system.cpu.execute: [tid:0] thread_interrupted?=0 isInbetweenInsts?=1
 375500: system.cpu.execute: Attempting to commit [tid:0]
 375500: system.cpu.execute: Committing micro-ops for interrupt[tid:0]
 375500: system.cpu.execute: Trying to commit canCommitInsts: 1
 375500: system.cpu.execute: Trying to commit from FUs
 375500: system.cpu.execute: Unstalling 0 for inst 0/3.1/7/35.35
 375500: system.cpu.execute: Discarding inst: 0/3.1/7/35.35 pc: 0x102cc (c_bnez) as its stream state was unexpected, expected: 4
 375500: system.cpu.execute: Completed inst: 0/3.1/7/35.35 pc: 0x102cc (c_bnez)
 375500: system.cpu.execute: Trying to commit canCommitInsts: 1
 375500: system.cpu.execute: Trying to commit from FUs
 375500: system.cpu.execute: Attempting to issue [tid:0]
 375500: system.cpu.execute:  ............... : 0/3.1/7/38.38 pc: 0x102d4 (c_slli) 
 375500: system.cpu.execute: Discarding inst: 0/3.1/7/38.38 pc: 0x102d4 (c_slli) as its stream state was unexpected, expected: 4
 375500: system.cpu.execute: Stepping to next inst inputIndex: 1
 375500: system.cpu.execute: Wrapping
 376000: system.cpu.execute.lsq.storeBuffer: StoreBuffer step numUnissuedAccesses: 0
 376000: system.cpu.execute: No interrupt controller
 376000: system.cpu.execute: [tid:0] thread_interrupted?=0 isInbetweenInsts?=1
 376000: system.cpu.execute: Attempting to commit [tid:0]
 376000: system.cpu.execute: Committing micro-ops for interrupt[tid:0]
 376000: system.cpu.execute: Trying to commit canCommitInsts: 1
 376000: system.cpu.execute: Trying to commit from FUs
 376000: system.cpu.execute: Unstalling 0 for inst 0/3.1/7/36.36
 376000: system.cpu.execute: Discarding inst: 0/3.1/7/36.36 pc: 0x102ce (c_jr) as its stream state was unexpected, expected: 4
 376000: system.cpu.execute: Completed inst: 0/3.1/7/36.36 pc: 0x102ce (c_jr)
 376000: system.cpu.execute: Attempting to issue [tid:0]
 376000: system.cpu.execute:  ............... : 0/3.1/7/39.39 pc: 0x102d6 (auipc) 
 376000: system.cpu.execute: Discarding inst: 0/3.1/7/39.39 pc: 0x102d6 (auipc) as its stream state was unexpected, expected: 4
 376000: system.cpu.execute: Stepping to next inst inputIndex: 1
 376000: system.cpu.execute: Wrapping
 377000: system.cpu.execute.lsq: Received response packet inst: 0/2.1/5/23.23 pc: 0x102c4 (c_sd) addr: 0x1c88 cmd: WriteResp
 377000: system.cpu.execute.lsq: Retiring packet
 377000: system.cpu.execute.lsq: Setting state from StoreBufferIssuing to Complete for request: 0/2.1/5/23.23 pc: 0x102c4 (c_sd)
 377000: system.cpu.execute.lsq.storeBuffer: Deleting request: 0x4b03b00 0x4b03b00 0/2.1/5/23.23 pc: 0x102c4 (c_sd) from StoreBuffer
 377000: system.cpu.execute.lsq.storeBuffer: StoreBuffer step numUnissuedAccesses: 0
 377000: system.cpu.execute: No interrupt controller
 377000: system.cpu.execute: [tid:0] thread_interrupted?=0 isInbetweenInsts?=1
 377500: system.cpu.execute.lsq.storeBuffer: StoreBuffer step numUnissuedAccesses: 0
 377500: system.cpu.execute: No interrupt controller
 377500: system.cpu.execute: [tid:0] thread_interrupted?=0 isInbetweenInsts?=1
 378000: system.cpu.execute.lsq: Received response packet inst: 0/3.1/7/31.31 pc: 0x102c2 (c_sd) addr: 0x1c90 cmd: WriteResp
 378000: system.cpu.execute.lsq: Retiring packet
 378000: system.cpu.execute.lsq: Setting state from StoreBufferIssuing to Complete for request: 0/3.1/7/31.31 pc: 0x102c2 (c_sd)
 378000: system.cpu.execute.lsq.storeBuffer: Deleting request: 0x4b03c00 0x4b03c00 0/3.1/7/31.31 pc: 0x102c2 (c_sd) from StoreBuffer
 378000: system.cpu.execute.lsq.storeBuffer: StoreBuffer step numUnissuedAccesses: 0
 378000: system.cpu.execute: No interrupt controller
 378000: system.cpu.execute: [tid:0] thread_interrupted?=0 isInbetweenInsts?=1
 378001: system.cpu.execute.lsq: Received response packet inst: 0/3.1/7/32.32 pc: 0x102c4 (c_sd) addr: 0x1c98 cmd: WriteResp
 378001: system.cpu.execute.lsq: Retiring packet
 378001: system.cpu.execute.lsq: Setting state from StoreBufferIssuing to Complete for request: 0/3.1/7/32.32 pc: 0x102c4 (c_sd)
 378001: system.cpu.execute.lsq.storeBuffer: Deleting request: 0x4b03900 0x4b03900 0/3.1/7/32.32 pc: 0x102c4 (c_sd) from StoreBuffer
 378500: system.cpu.execute.lsq.storeBuffer: StoreBuffer step numUnissuedAccesses: 0
 378500: system.cpu.execute: No interrupt controller
 378500: system.cpu.execute: [tid:0] thread_interrupted?=0 isInbetweenInsts?=1
 378500: system.cpu.execute: Attempting to issue [tid:0]
 378500: system.cpu.execute:  ............... : 0/4.1/9/40.40 pc: 0x102c2 (c_sd) 
 378500: system.cpu.execute: Trying to issue inst: 0/4.1/9/40.40 pc: 0x102c2 (c_sd) to FU: 0
 378500: system.cpu.execute: Can't issue as FU: 0 isn't capable
 378500: system.cpu.execute: Trying to issue inst: 0/4.1/9/40.40 pc: 0x102c2 (c_sd) to FU: 1
 378500: system.cpu.execute: Can't issue as FU: 1 isn't capable
 378500: system.cpu.execute: Trying to issue inst: 0/4.1/9/40.40 pc: 0x102c2 (c_sd) to FU: 2
 378500: system.cpu.execute: Can't issue as FU: 2 isn't capable
 378500: system.cpu.execute: Trying to issue inst: 0/4.1/9/40.40 pc: 0x102c2 (c_sd) to FU: 3
 378500: system.cpu.execute: Can't issue as FU: 3 isn't capable
 378500: system.cpu.execute: Trying to issue inst: 0/4.1/9/40.40 pc: 0x102c2 (c_sd) to FU: 4
 378500: system.cpu.execute: Can't issue as FU: 4 isn't capable
 378500: system.cpu.execute: Trying to issue inst: 0/4.1/9/40.40 pc: 0x102c2 (c_sd) to FU: 5
 378500: system.cpu.execute: Issuing inst: 0/4.1/9/40.40 pc: 0x102c2 (c_sd) into FU 5
 378500: system.cpu.execute.scoreboard0: Inst: 0/4.1/9/40.40 pc: 0x102c2 (c_sd) depends on execSeqNum: 0
 378500: system.cpu.execute: Memory ref inst: 0/4.1/9/40.40 pc: 0x102c2 (c_sd) must wait for inst 0(exec) before issuing
 378500: system.cpu.execute: Pushing mem inst: 0/4.1/9/40.40 pc: 0x102c2 (c_sd)
 378500: system.cpu.execute: Reached inst issue limit
 378500: system.cpu.execute: Stepping to next inst inputIndex: 1
 378500: system.cpu.execute: Wrapping
 379000: system.cpu.execute.lsq.storeBuffer: StoreBuffer step numUnissuedAccesses: 0
 379000: system.cpu.execute: No interrupt controller
 379000: system.cpu.execute: [tid:0] thread_interrupted?=0 isInbetweenInsts?=1
 379000: system.cpu.execute: Attempting to commit [tid:0]
 379000: system.cpu.execute: Committing micro-ops for interrupt[tid:0]
 379000: system.cpu.execute: Trying to commit canCommitInsts: 1
 379000: system.cpu.execute: Trying to commit from mem FUs
 379000: system.cpu.execute: Issuing mem ref early inst: 0/4.1/9/40.40 pc: 0x102c2 (c_sd) instToWaitFor: 0
 379000: global: ExecContext setting PC: (0x102c2=>0x102c4).(0=>1)
 379000: system.cpu.execute: Initiating memRef inst: 0/4.1/9/40.40 pc: 0x102c2 (c_sd)
 379000: system.cpu.execute.lsq: Pushing request (store) addr: 0x11ca0 size: 8 flags: 0x0 lineWidth : 0x40
 379000: system.cpu.execute.lsq: Setting state from NotIssued to InTranslation for request: 0/4.1/9/40.40 pc: 0x102c2 (c_sd)
 379000: system.cpu.execute.lsq: Submitting DTLB request
 379000: system.cpu.execute.lsq: Received translation response for request: 0/4.1/9/40.40 pc: 0x102c2 (c_sd)
 379000: system.cpu.execute.lsq: Setting state from InTranslation to Translated for request: 0/4.1/9/40.40 pc: 0x102c2 (c_sd)
 379000: system.cpu.execute.lsq: Setting state from Translated to StoreToStoreBuffer for request: 0/4.1/9/40.40 pc: 0x102c2 (c_sd)
 379000: system.cpu.execute.lsq: Moving store into transfers queue
 379000: system.cpu.execute: Unstalling 5 for inst 0/4.1/9/40.40
 379000: system.cpu.execute.lsq: Found matching memory response for inst: 0/4.1/9/40.40 pc: 0x102c2 (c_sd)
 379000: system.cpu.execute: Trying to commit canCommitInsts: 1
 379000: system.cpu.execute: Trying to commit mem response: 0/4.1/9/40.40 pc: 0x102c2 (c_sd)
 379000: global: ExecContext setting PC: (0x102c2=>0x102c4).(0=>1)
 379000: system.cpu.execute: Memory response inst: 0/4.1/9/40.40 pc: 0x102c2 (c_sd) addr: 0x1ca0 size: 8
 379000: system.cpu.execute.lsq: Sending store: 0/4.1/9/40.40 pc: 0x102c2 (c_sd) to store buffer
 379000: system.cpu.execute.lsq.storeBuffer: Pushing store: 0x4b03900 into store buffer
 379000: system.cpu.execute.lsq: Setting state from StoreToStoreBuffer to StoreInStoreBuffer for request: 0/4.1/9/40.40 pc: 0x102c2 (c_sd)
 379000: system.cpu.execute: Completed inst: 0/4.1/9/40.40 pc: 0x102c2 (c_sd)
 379000: system.cpu.execute: Reached mem ref commit limit
 379000: system.cpu.execute: Attempting to issue [tid:0]
 379000: system.cpu.execute:  ............... : 0/4.1/9/41.41 pc: 0x102c4 (c_sd) 
 379000: system.cpu.execute: Trying to issue inst: 0/4.1/9/41.41 pc: 0x102c4 (c_sd) to FU: 0
 379000: system.cpu.execute: Can't issue as FU: 0 isn't capable
 379000: system.cpu.execute: Trying to issue inst: 0/4.1/9/41.41 pc: 0x102c4 (c_sd) to FU: 1
 379000: system.cpu.execute: Can't issue as FU: 1 isn't capable
 379000: system.cpu.execute: Trying to issue inst: 0/4.1/9/41.41 pc: 0x102c4 (c_sd) to FU: 2
 379000: system.cpu.execute: Can't issue as FU: 2 isn't capable
 379000: system.cpu.execute: Trying to issue inst: 0/4.1/9/41.41 pc: 0x102c4 (c_sd) to FU: 3
 379000: system.cpu.execute: Can't issue as FU: 3 isn't capable
 379000: system.cpu.execute: Trying to issue inst: 0/4.1/9/41.41 pc: 0x102c4 (c_sd) to FU: 4
 379000: system.cpu.execute: Can't issue as FU: 4 isn't capable
 379000: system.cpu.execute: Trying to issue inst: 0/4.1/9/41.41 pc: 0x102c4 (c_sd) to FU: 5
 379000: system.cpu.execute: Issuing inst: 0/4.1/9/41.41 pc: 0x102c4 (c_sd) into FU 5
 379000: system.cpu.execute.scoreboard0: Inst: 0/4.1/9/41.41 pc: 0x102c4 (c_sd) depends on execSeqNum: 0
 379000: system.cpu.execute: Memory ref inst: 0/4.1/9/41.41 pc: 0x102c4 (c_sd) must wait for inst 0(exec) before issuing
 379000: system.cpu.execute: Pushing mem inst: 0/4.1/9/41.41 pc: 0x102c4 (c_sd)
 379000: system.cpu.execute: Reached inst issue limit
 379000: system.cpu.execute: Stepping to next inst inputIndex: 1
 379000: system.cpu.execute: Wrapping
 379500: system.cpu.execute.lsq.storeBuffer: StoreBuffer step numUnissuedAccesses: 1
 379500: system.cpu.execute.lsq.storeBuffer: Considering request: 0/4.1/9/40.40 pc: 0x102c2 (c_sd), sentAllPackets: 0 state: StoreInStoreBuffer
 379500: system.cpu.execute.lsq.storeBuffer: Trying to send request: 0/4.1/9/40.40 pc: 0x102c2 (c_sd) to memory system
 379500: system.cpu.execute.lsq: Trying to send request: 0/4.1/9/40.40 pc: 0x102c2 (c_sd) addr: 0x11ca0
 379500: system.cpu.execute.lsq: Sent data memory request
 379500: system.cpu.execute.lsq: Setting state from StoreInStoreBuffer to StoreBufferIssuing for request: 0/4.1/9/40.40 pc: 0x102c2 (c_sd)
 379500: system.cpu.execute: No interrupt controller
 379500: system.cpu.execute: [tid:0] thread_interrupted?=0 isInbetweenInsts?=1
[...]
1485500: system.cpu.execute: Stepping to next inst inputIndex: 1
1485500: system.cpu.execute: Wrapping
1485500: system.cpu.execute.lsq: No matching memory response for inst: 0/44.3/116/539.539 pc: 0x10202 (c_mv)
1486000: system.cpu.execute.lsq.storeBuffer: StoreBuffer step numUnissuedAccesses: 0
1486000: system.cpu.execute: No interrupt controller
1486000: system.cpu.execute: [tid:0] thread_interrupted?=0 isInbetweenInsts?=1
1486000: system.cpu.execute: Attempting to issue [tid:0]
1486000: system.cpu.execute:  ............... : 0/44.3/116/541.541 pc: 0x10208 (c_addi) 
1486000: system.cpu.execute: Trying to issue inst: 0/44.3/116/541.541 pc: 0x10208 (c_addi) to FU: 0
1486000: system.cpu.execute: Issuing inst: 0/44.3/116/541.541 pc: 0x10208 (c_addi) into FU 0
1486000: system.cpu.execute.scoreboard0: Marking up inst: 0/44.3/116/541.541 pc: 0x10208 (c_addi) regIndex: 2 final numResults: 1 returnCycle: 2975
1486000: system.cpu.execute: Reached inst issue limit
1486000: system.cpu.execute: Stepping to next inst inputIndex: 1
1486000: system.cpu.execute: Wrapping
1486500: system.cpu.execute.lsq.storeBuffer: StoreBuffer step numUnissuedAccesses: 0
1486500: system.cpu.execute: No interrupt controller
1486500: system.cpu.execute: [tid:0] thread_interrupted?=0 isInbetweenInsts?=1
1486500: system.cpu.execute: Attempting to commit [tid:0]
1486500: system.cpu.execute: Committing micro-ops for interrupt[tid:0]
1486500: system.cpu.execute: Trying to commit canCommitInsts: 1
1486500: system.cpu.execute: Trying to commit from FUs
1486500: global: ExecContext setting PC: (0x10202=>0x10204).(0=>1)
1486500: system.cpu.execute: Committing inst: 0/44.3/116/539.539 pc: 0x10202 (c_mv)
1486500: system.cpu.execute: Unstalling 0 for inst 0/44.3/116/539.539
1486500: system.cpu.execute: Completed inst: 0/44.3/116/539.539 pc: 0x10202 (c_mv)
1486500: system.cpu.execute.scoreboard0: Clearing inst: 0/44.3/116/539.539 pc: 0x10202 (c_mv) regIndex: 10 final numResults: 0
1486500: system.cpu.execute: Trying to commit canCommitInsts: 1
1486500: system.cpu.execute: Trying to commit from FUs
1486500: system.cpu.execute: Attempting to issue [tid:0]
1486500: system.cpu.execute:  ............... : 0/44.3/116/542.542 pc: 0x1020a (c_lui) 
1486500: system.cpu.execute: Trying to issue inst: 0/44.3/116/542.542 pc: 0x1020a (c_lui) to FU: 0
1486500: system.cpu.execute: Issuing inst: 0/44.3/116/542.542 pc: 0x1020a (c_lui) into FU 0
1486500: system.cpu.execute.scoreboard0: Marking up inst: 0/44.3/116/542.542 pc: 0x1020a (c_lui) regIndex: 15 final numResults: 1 returnCycle: 2976
1486500: system.cpu.execute: Reached inst issue limit
1486500: system.cpu.execute: Stepping to next inst inputIndex: 1
1486500: system.cpu.execute: Wrapping
1487000: system.cpu.execute.lsq.storeBuffer: StoreBuffer step numUnissuedAccesses: 0
1487000: system.cpu.execute: No interrupt controller
1487000: system.cpu.execute: [tid:0] thread_interrupted?=0 isInbetweenInsts?=1
1487000: system.cpu.execute: Attempting to commit [tid:0]
1487000: system.cpu.execute: Committing micro-ops for interrupt[tid:0]
1487000: system.cpu.execute: Trying to commit canCommitInsts: 1
1487000: system.cpu.execute: Trying to commit from FUs
1487000: global: ExecContext setting PC: (0x10204=>0x10208).(0=>1)
1487000: system.cpu.execute: Committing inst: 0/44.3/116/540.540 pc: 0x10204 (jal)
1487000: system.cpu.execute: Unstalling 0 for inst 0/44.3/116/540.540
1487000: system.cpu.execute: Completed inst: 0/44.3/116/540.540 pc: 0x10204 (jal)
1487000: system.cpu.execute.scoreboard0: Clearing inst: 0/44.3/116/540.540 pc: 0x10204 (jal) regIndex: 1 final numResults: 0
1487000: system.cpu.execute: Attempting to issue [tid:0]
1487000: system.cpu.execute:  ............... : 0/44.3/116/543.543 pc: 0x1020c (c_sdsp) 
1487000: system.cpu.execute: Discarding inst: 0/44.3/116/543.543 pc: 0x1020c (c_sdsp) as its stream state was unexpected, expected: 45
1487000: system.cpu.execute: Stepping to next inst inputIndex: 1
1487000: system.cpu.execute: Wrapping
1487500: system.cpu.execute.lsq.storeBuffer: StoreBuffer step numUnissuedAccesses: 0
1487500: system.cpu.execute: No interrupt controller
1487500: system.cpu.execute: [tid:0] thread_interrupted?=0 isInbetweenInsts?=1
1487500: system.cpu.execute: Attempting to commit [tid:0]
1487500: system.cpu.execute: Committing micro-ops for interrupt[tid:0]
1487500: system.cpu.execute: Trying to commit canCommitInsts: 1
1487500: system.cpu.execute: Trying to commit from FUs
1487500: system.cpu.execute: Unstalling 0 for inst 0/44.3/116/541.541
1487500: system.cpu.execute: Discarding inst: 0/44.3/116/541.541 pc: 0x10208 (c_addi) as its stream state was unexpected, expected: 45
1487500: system.cpu.execute: Completed inst: 0/44.3/116/541.541 pc: 0x10208 (c_addi)
1487500: system.cpu.execute.scoreboard0: Clearing inst: 0/44.3/116/541.541 pc: 0x10208 (c_addi) regIndex: 2 final numResults: 0
1487500: system.cpu.execute: Trying to commit canCommitInsts: 1
1487500: system.cpu.execute: Trying to commit from FUs
1487500: system.cpu.execute: Attempting to issue [tid:0]
1487500: system.cpu.execute:  ............... : 0/44.3/116/544.544 pc: 0x1020e (c_lui) 
1487500: system.cpu.execute: Discarding inst: 0/44.3/116/544.544 pc: 0x1020e (c_lui) as its stream state was unexpected, expected: 45
1487500: system.cpu.execute: Stepping to next inst inputIndex: 1
1487500: system.cpu.execute: Wrapping
1488000: system.cpu.execute.lsq.storeBuffer: StoreBuffer step numUnissuedAccesses: 0
1488000: system.cpu.execute: No interrupt controller
1488000: system.cpu.execute: [tid:0] thread_interrupted?=0 isInbetweenInsts?=1
1488000: system.cpu.execute: Attempting to commit [tid:0]
1488000: system.cpu.execute: Committing micro-ops for interrupt[tid:0]
1488000: system.cpu.execute: Trying to commit canCommitInsts: 1
1488000: system.cpu.execute: Trying to commit from FUs
1488000: system.cpu.execute: Unstalling 0 for inst 0/44.3/116/542.542
1488000: system.cpu.execute: Discarding inst: 0/44.3/116/542.542 pc: 0x1020a (c_lui) as its stream state was unexpected, expected: 45
1488000: system.cpu.execute: Completed inst: 0/44.3/116/542.542 pc: 0x1020a (c_lui)
1488000: system.cpu.execute.scoreboard0: Clearing inst: 0/44.3/116/542.542 pc: 0x1020a (c_lui) regIndex: 15 final numResults: 0
1488000: system.cpu.execute: Attempting to issue [tid:0]
1488000: system.cpu.execute:  ............... : 0/44.3/116/545.545 pc: 0x10210 (addi) 
1488000: system.cpu.execute: Discarding inst: 0/44.3/116/545.545 pc: 0x10210 (addi) as its stream state was unexpected, expected: 45
1488000: system.cpu.execute: Stepping to next inst inputIndex: 1
1488000: system.cpu.execute: Wrapping
1489000: system.cpu.execute.lsq.storeBuffer: StoreBuffer step numUnissuedAccesses: 0
1489000: system.cpu.execute: No interrupt controller
1489000: system.cpu.execute: [tid:0] thread_interrupted?=0 isInbetweenInsts?=1
1489500: system.cpu.execute.lsq.storeBuffer: StoreBuffer step numUnissuedAccesses: 0
1489500: system.cpu.execute: No interrupt controller
1489500: system.cpu.execute: [tid:0] thread_interrupted?=0 isInbetweenInsts?=1
1490000: system.cpu.execute.lsq.storeBuffer: StoreBuffer step numUnissuedAccesses: 0
1490000: system.cpu.execute: No interrupt controller
1490000: system.cpu.execute: [tid:0] thread_interrupted?=0 isInbetweenInsts?=1
1490500: system.cpu.execute.lsq.storeBuffer: StoreBuffer step numUnissuedAccesses: 0
1490500: system.cpu.execute: No interrupt controller
1490500: system.cpu.execute: [tid:0] thread_interrupted?=0 isInbetweenInsts?=1
1490500: system.cpu.execute: Attempting to issue [tid:0]
1490500: system.cpu.execute:  ............... : 0/45.3/118/546.546 pc: 0x1046a (c_li) 
1490500: system.cpu.execute: Trying to issue inst: 0/45.3/118/546.546 pc: 0x1046a (c_li) to FU: 0
1490500: system.cpu.execute: Issuing inst: 0/45.3/118/546.546 pc: 0x1046a (c_li) into FU 0
1490500: system.cpu.execute.scoreboard0: Marking up inst: 0/45.3/118/546.546 pc: 0x1046a (c_li) regIndex: 11 final numResults: 1 returnCycle: 2984
1490500: system.cpu.execute: Reached inst issue limit
1490500: system.cpu.execute: Stepping to next inst inputIndex: 1
1490500: system.cpu.execute: Wrapping
1490500: system.cpu.execute.lsq: No matching memory response for inst: 0/45.3/118/546.546 pc: 0x1046a (c_li)
1491000: system.cpu.execute.lsq.storeBuffer: StoreBuffer step numUnissuedAccesses: 0
1491000: system.cpu.execute: No interrupt controller
1491000: system.cpu.execute: [tid:0] thread_interrupted?=0 isInbetweenInsts?=1
1491000: system.cpu.execute: Attempting to issue [tid:0]
1491000: system.cpu.execute:  ............... : 0/45.3/118/547.547 pc: 0x1046c (c_li) 
1491000: system.cpu.execute: Trying to issue inst: 0/45.3/118/547.547 pc: 0x1046c (c_li) to FU: 0
1491000: system.cpu.execute: Issuing inst: 0/45.3/118/547.547 pc: 0x1046c (c_li) into FU 0
1491000: system.cpu.execute.scoreboard0: Marking up inst: 0/45.3/118/547.547 pc: 0x1046c (c_li) regIndex: 12 final numResults: 1 returnCycle: 2985
1491000: system.cpu.execute: Reached inst issue limit
1491000: system.cpu.execute: Stepping to next inst inputIndex: 1
1491000: system.cpu.execute: Wrapping
1491000: system.cpu.execute.lsq: No matching memory response for inst: 0/45.3/118/546.546 pc: 0x1046a (c_li)
1491500: system.cpu.execute.lsq.storeBuffer: StoreBuffer step numUnissuedAccesses: 0
1491500: system.cpu.execute: No interrupt controller
1491500: system.cpu.execute: [tid:0] thread_interrupted?=0 isInbetweenInsts?=1
1491500: system.cpu.execute: Attempting to issue [tid:0]
1491500: system.cpu.execute:  ............... : 0/45.3/118/548.548 pc: 0x1046e (c_li) 
1491500: system.cpu.execute: Trying to issue inst: 0/45.3/118/548.548 pc: 0x1046e (c_li) to FU: 0
1491500: system.cpu.execute: Issuing inst: 0/45.3/118/548.548 pc: 0x1046e (c_li) into FU 0
1491500: system.cpu.execute.scoreboard0: Marking up inst: 0/45.3/118/548.548 pc: 0x1046e (c_li) regIndex: 13 final numResults: 1 returnCycle: 2986
1491500: system.cpu.execute: Reached inst issue limit
1491500: system.cpu.execute: Stepping to next inst inputIndex: 1
1491500: system.cpu.execute: Wrapping
1492000: system.cpu.execute.lsq.storeBuffer: StoreBuffer step numUnissuedAccesses: 0
1492000: system.cpu.execute: No interrupt controller
1492000: system.cpu.execute: [tid:0] thread_interrupted?=0 isInbetweenInsts?=1
1492000: system.cpu.execute: Attempting to commit [tid:0]
1492000: system.cpu.execute: Committing micro-ops for interrupt[tid:0]
1492000: system.cpu.execute: Trying to commit canCommitInsts: 1
1492000: system.cpu.execute: Trying to commit from FUs
1492000: global: ExecContext setting PC: (0x1046a=>0x1046c).(0=>1)
1492000: system.cpu.execute: Committing inst: 0/45.3/118/546.546 pc: 0x1046a (c_li)
1492000: system.cpu.execute: Unstalling 0 for inst 0/45.3/118/546.546
1492000: system.cpu.execute: Completed inst: 0/45.3/118/546.546 pc: 0x1046a (c_li)
1492000: system.cpu.execute.scoreboard0: Clearing inst: 0/45.3/118/546.546 pc: 0x1046a (c_li) regIndex: 11 final numResults: 0
1492000: system.cpu.execute: Trying to commit canCommitInsts: 1
1492000: system.cpu.execute: Trying to commit from FUs
1492000: system.cpu.execute: Attempting to issue [tid:0]
1492000: system.cpu.execute:  ............... : 0/45.3/118/549.549 pc: 0x10470 (c_li) 
1492000: system.cpu.execute: Trying to issue inst: 0/45.3/118/549.549 pc: 0x10470 (c_li) to FU: 0
1492000: system.cpu.execute: Issuing inst: 0/45.3/118/549.549 pc: 0x10470 (c_li) into FU 0
1492000: system.cpu.execute.scoreboard0: Marking up inst: 0/45.3/118/549.549 pc: 0x10470 (c_li) regIndex: 14 final numResults: 1 returnCycle: 2987
1492000: system.cpu.execute: Reached inst issue limit
1492000: system.cpu.execute: Stepping to next inst inputIndex: 1
1492000: system.cpu.execute: Wrapping
1492500: system.cpu.execute.lsq.storeBuffer: StoreBuffer step numUnissuedAccesses: 0
1492500: system.cpu.execute: No interrupt controller
1492500: system.cpu.execute: [tid:0] thread_interrupted?=0 isInbetweenInsts?=1
1492500: system.cpu.execute: Attempting to commit [tid:0]
1492500: system.cpu.execute: Committing micro-ops for interrupt[tid:0]
1492500: system.cpu.execute: Trying to commit canCommitInsts: 1
1492500: system.cpu.execute: Trying to commit from FUs
1492500: global: ExecContext setting PC: (0x1046c=>0x1046e).(0=>1)
1492500: system.cpu.execute: Committing inst: 0/45.3/118/547.547 pc: 0x1046c (c_li)
1492500: system.cpu.execute: Unstalling 0 for inst 0/45.3/118/547.547
1492500: system.cpu.execute: Completed inst: 0/45.3/118/547.547 pc: 0x1046c (c_li)
1492500: system.cpu.execute.scoreboard0: Clearing inst: 0/45.3/118/547.547 pc: 0x1046c (c_li) regIndex: 12 final numResults: 0
1492500: system.cpu.execute: Trying to commit canCommitInsts: 1
1492500: system.cpu.execute: Trying to commit from FUs
1492500: system.cpu.execute: Attempting to issue [tid:0]
1492500: system.cpu.execute:  ............... : 0/45.3/118/550.550 pc: 0x10472 (c_li) 
1492500: system.cpu.execute: Trying to issue inst: 0/45.3/118/550.550 pc: 0x10472 (c_li) to FU: 0
1492500: system.cpu.execute: Issuing inst: 0/45.3/118/550.550 pc: 0x10472 (c_li) into FU 0
1492500: system.cpu.execute.scoreboard0: Marking up inst: 0/45.3/118/550.550 pc: 0x10472 (c_li) regIndex: 15 final numResults: 1 returnCycle: 2988
1492500: system.cpu.execute: Reached inst issue limit
1492500: system.cpu.execute: Stepping to next inst inputIndex: 1
1492500: system.cpu.execute: Wrapping
1493000: system.cpu.execute.lsq.storeBuffer: StoreBuffer step numUnissuedAccesses: 0
1493000: system.cpu.execute: No interrupt controller
1493000: system.cpu.execute: [tid:0] thread_interrupted?=0 isInbetweenInsts?=1
1493000: system.cpu.execute: Attempting to commit [tid:0]
1493000: system.cpu.execute: Committing micro-ops for interrupt[tid:0]
1493000: system.cpu.execute: Trying to commit canCommitInsts: 1
1493000: system.cpu.execute: Trying to commit from FUs
1493000: global: ExecContext setting PC: (0x1046e=>0x10470).(0=>1)
1493000: system.cpu.execute: Committing inst: 0/45.3/118/548.548 pc: 0x1046e (c_li)
1493000: system.cpu.execute: Unstalling 0 for inst 0/45.3/118/548.548
1493000: system.cpu.execute: Completed inst: 0/45.3/118/548.548 pc: 0x1046e (c_li)
1493000: system.cpu.execute.scoreboard0: Clearing inst: 0/45.3/118/548.548 pc: 0x1046e (c_li) regIndex: 13 final numResults: 0
1493000: system.cpu.execute: Trying to commit canCommitInsts: 1
1493000: system.cpu.execute: Trying to commit from FUs
1493000: system.cpu.execute: Attempting to issue [tid:0]
1493000: system.cpu.execute:  ............... : 0/45.3/118/551.551 pc: 0x10474 (addi) 
1493000: system.cpu.execute: Trying to issue inst: 0/45.3/118/551.551 pc: 0x10474 (addi) to FU: 0
1493000: system.cpu.execute: Issuing inst: 0/45.3/118/551.551 pc: 0x10474 (addi) into FU 0
1493000: system.cpu.execute.scoreboard0: Marking up inst: 0/45.3/118/551.551 pc: 0x10474 (addi) regIndex: 17 final numResults: 1 returnCycle: 2989
1493000: system.cpu.execute: Reached inst issue limit
1493000: system.cpu.execute: Stepping to next inst inputIndex: 1
1493000: system.cpu.execute: Wrapping
1493500: system.cpu.execute.lsq.storeBuffer: StoreBuffer step numUnissuedAccesses: 0
1493500: system.cpu.execute: No interrupt controller
1493500: system.cpu.execute: [tid:0] thread_interrupted?=0 isInbetweenInsts?=1
1493500: system.cpu.execute: Attempting to commit [tid:0]
1493500: system.cpu.execute: Committing micro-ops for interrupt[tid:0]
1493500: system.cpu.execute: Trying to commit canCommitInsts: 1
1493500: system.cpu.execute: Trying to commit from FUs
1493500: global: ExecContext setting PC: (0x10470=>0x10472).(0=>1)
1493500: system.cpu.execute: Committing inst: 0/45.3/118/549.549 pc: 0x10470 (c_li)
1493500: system.cpu.execute: Unstalling 0 for inst 0/45.3/118/549.549
1493500: system.cpu.execute: Completed inst: 0/45.3/118/549.549 pc: 0x10470 (c_li)
1493500: system.cpu.execute.scoreboard0: Clearing inst: 0/45.3/118/549.549 pc: 0x10470 (c_li) regIndex: 14 final numResults: 0
1493500: system.cpu.execute: Trying to commit canCommitInsts: 1
1493500: system.cpu.execute: Trying to commit from FUs
1493500: system.cpu.execute: Attempting to issue [tid:0]
1493500: system.cpu.execute:  ............... : 0/45.3/118/552.552 pc: 0x10478 (ecall) 
1493500: system.cpu.execute: Trying to issue inst: 0/45.3/118/552.552 pc: 0x10478 (ecall) to FU: 0
1493500: system.cpu.execute: Issuing 0/45.3/118/552.552 to 8
1493500: system.cpu.execute: Reached inst issue limit
1493500: system.cpu.execute: Stepping to next inst inputIndex: 1
1493500: system.cpu.execute: Wrapping
1494000: system.cpu.execute.lsq.storeBuffer: StoreBuffer step numUnissuedAccesses: 0
1494000: system.cpu.execute: No interrupt controller
1494000: system.cpu.execute: [tid:0] thread_interrupted?=0 isInbetweenInsts?=1
1494000: system.cpu.execute: Attempting to commit [tid:0]
1494000: system.cpu.execute: Committing micro-ops for interrupt[tid:0]
1494000: system.cpu.execute: Trying to commit canCommitInsts: 1
1494000: system.cpu.execute: Trying to commit from FUs
1494000: global: ExecContext setting PC: (0x10472=>0x10474).(0=>1)
1494000: system.cpu.execute: Committing inst: 0/45.3/118/550.550 pc: 0x10472 (c_li)
1494000: system.cpu.execute: Unstalling 0 for inst 0/45.3/118/550.550
1494000: system.cpu.execute: Completed inst: 0/45.3/118/550.550 pc: 0x10472 (c_li)
1494000: system.cpu.execute.scoreboard0: Clearing inst: 0/45.3/118/550.550 pc: 0x10472 (c_li) regIndex: 15 final numResults: 0
1494000: system.cpu.execute: Trying to commit canCommitInsts: 1
1494000: system.cpu.execute: Trying to commit from FUs
1494000: system.cpu.execute: Attempting to issue [tid:0]
1494000: system.cpu.execute:  ............... : 0/45.3/118/553.553 pc: 0x1047c (bge) 
1494000: system.cpu.execute: Trying to issue inst: 0/45.3/118/553.553 pc: 0x1047c (bge) to FU: 0
1494000: system.cpu.execute: Issuing inst: 0/45.3/118/553.553 pc: 0x1047c (bge) into FU 0
1494000: system.cpu.execute: Reached inst issue limit
1494000: system.cpu.execute: Stepping to next inst inputIndex: 1
1494000: system.cpu.execute: Wrapping
1494500: system.cpu.execute.lsq.storeBuffer: StoreBuffer step numUnissuedAccesses: 0
1494500: system.cpu.execute: No interrupt controller
1494500: system.cpu.execute: [tid:0] thread_interrupted?=0 isInbetweenInsts?=1
1494500: system.cpu.execute: Attempting to commit [tid:0]
1494500: system.cpu.execute: Committing micro-ops for interrupt[tid:0]
1494500: system.cpu.execute: Trying to commit canCommitInsts: 1
1494500: system.cpu.execute: Trying to commit from FUs
1494500: global: ExecContext setting PC: (0x10474=>0x10478).(0=>1)
1494500: system.cpu.execute: Committing inst: 0/45.3/118/551.551 pc: 0x10474 (addi)
1494500: system.cpu.execute: Unstalling 0 for inst 0/45.3/118/551.551
1494500: system.cpu.execute: Completed inst: 0/45.3/118/551.551 pc: 0x10474 (addi)
1494500: system.cpu.execute.scoreboard0: Clearing inst: 0/45.3/118/551.551 pc: 0x10474 (addi) regIndex: 17 final numResults: 0
1494500: system.cpu.execute: Trying to commit canCommitInsts: 1
1494500: system.cpu.execute: Committing no cost inst: 0/45.3/118/552.552 pc: 0x10478 (ecall)
1494500: global: ExecContext setting PC: (0x10478=>0x1047c).(0=>1)
1494500: system.cpu.execute: Committing inst: 0/45.3/118/552.552 pc: 0x10478 (ecall)
1494500: system.cpu.execute: Fault in execute of inst: 0/45.3/118/552.552 pc: 0x10478 (ecall) fault: System call
1494500: system.cpu.execute: Completed inst: 0/45.3/118/552.552 pc: 0x10478 (ecall)
1494500: system.cpu.execute: Attempting to issue [tid:0]
1494500: system.cpu.execute:  ............... : 0/45.3/119/554.554 pc: 0x10480 (c_addi) 
1494500: system.cpu.execute: Discarding inst: 0/45.3/119/554.554 pc: 0x10480 (c_addi) as its stream state was unexpected, expected: 46
1494500: system.cpu.execute: Stepping to next inst inputIndex: 1
1494500: system.cpu.execute: Wrapping
1494500: system.cpu.execute.lsq: No matching memory response for inst: 0/45.3/118/553.553 pc: 0x1047c (bge)
Exiting @ tick 1494500 because exiting with last active thread context
