gem5 Simulator System.  http://gem5.org
gem5 is copyrighted software; use the --copyright option for details.

gem5 compiled Oct  3 2018 15:02:46
gem5 started Oct  4 2018 16:57:20
gem5 executing on octa, pid 22297
command line: gem5.opt --debug-flag=MinorMem /home/vidushi/ss-stack/gem5/configs/example/se.py --cpu-type=MinorCPU --l1d_size=4096kB --l1i_size=16kB --l2_size=4096kB --caches --cmd=main

Global frequency set at 1000000000000 ticks per second
Loading SS Config (env SBCONFIG): "/home/vidushi/ss-stack/ss-tools/configs/spu_merge_test.sbmodel"
FU_FIFO_LEN:15
IND_ROB_SIZE:8
VPORT_IN depricated, ignoring colons, switch to PORT_IN
**** REAL SIMULATION ****
    500: system.cpu.execute.lsq.storeBuffer: StoreBuffer step numUnissuedAccesses: 0
   1000: system.cpu.execute.lsq.storeBuffer: StoreBuffer step numUnissuedAccesses: 0
  78500: system.cpu.execute.lsq.storeBuffer: StoreBuffer step numUnissuedAccesses: 0
  79000: system.cpu.execute.lsq.storeBuffer: StoreBuffer step numUnissuedAccesses: 0
  79500: system.cpu.execute.lsq.storeBuffer: StoreBuffer step numUnissuedAccesses: 0
  80000: system.cpu.execute.lsq.storeBuffer: StoreBuffer step numUnissuedAccesses: 0
  80000: system.cpu.execute.lsq: No matching memory response for inst: 0/1.1/1/1.1 pc: 0x100f0 (auipc)
  80500: system.cpu.execute.lsq.storeBuffer: StoreBuffer step numUnissuedAccesses: 0
  80500: system.cpu.execute.lsq: No matching memory response for inst: 0/1.1/1/1.1 pc: 0x100f0 (auipc)
  81000: system.cpu.execute.lsq.storeBuffer: StoreBuffer step numUnissuedAccesses: 0
  81500: system.cpu.execute.lsq.storeBuffer: StoreBuffer step numUnissuedAccesses: 0
  82000: system.cpu.execute.lsq.storeBuffer: StoreBuffer step numUnissuedAccesses: 0
  82500: system.cpu.execute.lsq.storeBuffer: StoreBuffer step numUnissuedAccesses: 0
  83000: system.cpu.execute.lsq.storeBuffer: StoreBuffer step numUnissuedAccesses: 0
 136500: system.cpu.execute.lsq.storeBuffer: StoreBuffer step numUnissuedAccesses: 0
 137000: system.cpu.execute.lsq.storeBuffer: StoreBuffer step numUnissuedAccesses: 0
 137500: system.cpu.execute.lsq.storeBuffer: StoreBuffer step numUnissuedAccesses: 0
 138000: system.cpu.execute.lsq.storeBuffer: StoreBuffer step numUnissuedAccesses: 0
 138000: system.cpu.execute.lsq: No matching memory response for inst: 0/1.1/2/5.5 pc: 0x10100 (c_sub)
 138500: system.cpu.execute.lsq.storeBuffer: StoreBuffer step numUnissuedAccesses: 0
 138500: system.cpu.execute.lsq: No matching memory response for inst: 0/1.1/2/5.5 pc: 0x10100 (c_sub)
 139000: system.cpu.execute.lsq.storeBuffer: StoreBuffer step numUnissuedAccesses: 0
 139500: system.cpu.execute.lsq.storeBuffer: StoreBuffer step numUnissuedAccesses: 0
 140000: system.cpu.execute.lsq.storeBuffer: StoreBuffer step numUnissuedAccesses: 0
 140500: system.cpu.execute.lsq.storeBuffer: StoreBuffer step numUnissuedAccesses: 0
 141000: system.cpu.execute.lsq.storeBuffer: StoreBuffer step numUnissuedAccesses: 0
 141500: system.cpu.execute.lsq.storeBuffer: StoreBuffer step numUnissuedAccesses: 0
 194500: system.cpu.execute.lsq.storeBuffer: StoreBuffer step numUnissuedAccesses: 0
 195000: system.cpu.execute.lsq.storeBuffer: StoreBuffer step numUnissuedAccesses: 0
 195500: system.cpu.execute.lsq.storeBuffer: StoreBuffer step numUnissuedAccesses: 0
 252500: system.cpu.execute.lsq.storeBuffer: StoreBuffer step numUnissuedAccesses: 0
 253000: system.cpu.execute.lsq.storeBuffer: StoreBuffer step numUnissuedAccesses: 0
 253500: system.cpu.execute.lsq.storeBuffer: StoreBuffer step numUnissuedAccesses: 0
 254000: system.cpu.execute.lsq.storeBuffer: StoreBuffer step numUnissuedAccesses: 0
 254000: system.cpu.execute.lsq: No matching memory response for inst: 0/2.1/4/13.13 pc: 0x102aa (c_li)
 254500: system.cpu.execute.lsq.storeBuffer: StoreBuffer step numUnissuedAccesses: 0
 254500: system.cpu.execute.lsq: No matching memory response for inst: 0/2.1/4/13.13 pc: 0x102aa (c_li)
 255000: system.cpu.execute.lsq.storeBuffer: StoreBuffer step numUnissuedAccesses: 0
 255500: system.cpu.execute.lsq.storeBuffer: StoreBuffer step numUnissuedAccesses: 0
 256000: system.cpu.execute.lsq.storeBuffer: StoreBuffer step numUnissuedAccesses: 0
 256500: system.cpu.execute.lsq.storeBuffer: StoreBuffer step numUnissuedAccesses: 0
 257000: system.cpu.execute.lsq.storeBuffer: StoreBuffer step numUnissuedAccesses: 0
 257500: system.cpu.execute.lsq.storeBuffer: StoreBuffer step numUnissuedAccesses: 0
 258000: system.cpu.execute.lsq.storeBuffer: StoreBuffer step numUnissuedAccesses: 0
 258500: system.cpu.execute.lsq.storeBuffer: StoreBuffer step numUnissuedAccesses: 0
 259000: system.cpu.execute.lsq.storeBuffer: StoreBuffer step numUnissuedAccesses: 0
 310500: system.cpu.execute.lsq.storeBuffer: StoreBuffer step numUnissuedAccesses: 0
 311000: system.cpu.execute.lsq.storeBuffer: StoreBuffer step numUnissuedAccesses: 0
 311500: system.cpu.execute.lsq.storeBuffer: StoreBuffer step numUnissuedAccesses: 0
 312000: system.cpu.execute.lsq.storeBuffer: StoreBuffer step numUnissuedAccesses: 0
 312000: system.cpu.execute.lsq: No matching memory response for inst: 0/2.1/5/21.21 pc: 0x102c0 (c_add)
 312500: system.cpu.execute.lsq.storeBuffer: StoreBuffer step numUnissuedAccesses: 0
 312500: system.cpu.execute.lsq: No matching memory response for inst: 0/2.1/5/21.21 pc: 0x102c0 (c_add)
 313000: system.cpu.execute.lsq.storeBuffer: StoreBuffer step numUnissuedAccesses: 0
 313000: system.cpu.execute.lsq: Pushing request (store) addr: 0x11c80 size: 8 flags: 0x0 lineWidth : 0x40
 313000: system.cpu.execute.lsq: Setting state from NotIssued to InTranslation for request: 0/2.1/5/22.22 pc: 0x102c2 (c_sd)
 313000: system.cpu.execute.lsq: Submitting DTLB request
 313000: system.cpu.execute.lsq: Received translation response for request: 0/2.1/5/22.22 pc: 0x102c2 (c_sd)
 313000: system.cpu.execute.lsq: Setting state from InTranslation to Translated for request: 0/2.1/5/22.22 pc: 0x102c2 (c_sd)
 313000: system.cpu.execute.lsq: Setting state from Translated to StoreToStoreBuffer for request: 0/2.1/5/22.22 pc: 0x102c2 (c_sd)
 313000: system.cpu.execute.lsq: Moving store into transfers queue
 313500: system.cpu.execute.lsq.storeBuffer: StoreBuffer step numUnissuedAccesses: 0
 313500: system.cpu.execute.lsq: Pushing request (store) addr: 0x11c88 size: 8 flags: 0x0 lineWidth : 0x40
 313500: system.cpu.execute.lsq: Setting state from NotIssued to InTranslation for request: 0/2.1/5/23.23 pc: 0x102c4 (c_sd)
 313500: system.cpu.execute.lsq: Submitting DTLB request
 313500: system.cpu.execute.lsq: Received translation response for request: 0/2.1/5/23.23 pc: 0x102c4 (c_sd)
 313500: system.cpu.execute.lsq: Setting state from InTranslation to Translated for request: 0/2.1/5/23.23 pc: 0x102c4 (c_sd)
 313500: system.cpu.execute.lsq: Setting state from Translated to StoreToStoreBuffer for request: 0/2.1/5/23.23 pc: 0x102c4 (c_sd)
 313500: system.cpu.execute.lsq: Moving store into transfers queue
 313500: system.cpu.execute.lsq: Found matching memory response for inst: 0/2.1/5/22.22 pc: 0x102c2 (c_sd)
 313500: system.cpu.execute: Memory response inst: 0/2.1/5/22.22 pc: 0x102c2 (c_sd) addr: 0x1c80 size: 8
 313500: system.cpu.execute.lsq: Sending store: 0/2.1/5/22.22 pc: 0x102c2 (c_sd) to store buffer
 313500: system.cpu.execute.lsq.storeBuffer: Pushing store: 0x508b900 into store buffer
 313500: system.cpu.execute.lsq: Setting state from StoreToStoreBuffer to StoreInStoreBuffer for request: 0/2.1/5/22.22 pc: 0x102c2 (c_sd)
 313500: system.cpu.execute.lsq: Found matching memory response for inst: 0/2.1/5/23.23 pc: 0x102c4 (c_sd)
 314000: system.cpu.execute.lsq.storeBuffer: StoreBuffer step numUnissuedAccesses: 1
 314000: system.cpu.execute.lsq.storeBuffer: Considering request: 0/2.1/5/22.22 pc: 0x102c2 (c_sd), sentAllPackets: 0 state: StoreInStoreBuffer
 314000: system.cpu.execute.lsq.storeBuffer: Trying to send request: 0/2.1/5/22.22 pc: 0x102c2 (c_sd) to memory system
 314000: system.cpu.execute.lsq: Trying to send request: 0/2.1/5/22.22 pc: 0x102c2 (c_sd) addr: 0x11c80
 314000: system.cpu.execute.lsq: Sent data memory request
 314000: system.cpu.execute.lsq: Setting state from StoreInStoreBuffer to StoreBufferIssuing for request: 0/2.1/5/22.22 pc: 0x102c2 (c_sd)
 314000: system.cpu.execute.lsq: Found matching memory response for inst: 0/2.1/5/23.23 pc: 0x102c4 (c_sd)
 314000: system.cpu.execute.lsq: Found matching memory response for inst: 0/2.1/5/23.23 pc: 0x102c4 (c_sd)
 314000: system.cpu.execute: Memory response inst: 0/2.1/5/23.23 pc: 0x102c4 (c_sd) addr: 0x1c88 size: 8
 314000: system.cpu.execute.lsq: Sending store: 0/2.1/5/23.23 pc: 0x102c4 (c_sd) to store buffer
 314000: system.cpu.execute.lsq.storeBuffer: Pushing store: 0x508bb00 into store buffer
 314000: system.cpu.execute.lsq: Setting state from StoreToStoreBuffer to StoreInStoreBuffer for request: 0/2.1/5/23.23 pc: 0x102c4 (c_sd)
 314000: system.cpu.execute.lsq: No matching memory response for inst: 0/2.1/5/24.24 pc: 0x102c6 (c_addi)
 314500: system.cpu.execute.lsq.storeBuffer: StoreBuffer step numUnissuedAccesses: 1
 314500: system.cpu.execute.lsq.storeBuffer: Considering request: 0/2.1/5/22.22 pc: 0x102c2 (c_sd), sentAllPackets: 1 state: StoreBufferIssuing
 314500: system.cpu.execute.lsq.storeBuffer: Considering request: 0/2.1/5/23.23 pc: 0x102c4 (c_sd), sentAllPackets: 0 state: StoreInStoreBuffer
 314500: system.cpu.execute.lsq.storeBuffer: Trying to send request: 0/2.1/5/23.23 pc: 0x102c4 (c_sd) to memory system
 314500: system.cpu.execute.lsq: Trying to send request: 0/2.1/5/23.23 pc: 0x102c4 (c_sd) addr: 0x11c88
 314500: system.cpu.execute.lsq: Sent data memory request
 314500: system.cpu.execute.lsq: Setting state from StoreInStoreBuffer to StoreBufferIssuing for request: 0/2.1/5/23.23 pc: 0x102c4 (c_sd)
 315000: system.cpu.execute.lsq.storeBuffer: StoreBuffer step numUnissuedAccesses: 0
 315500: system.cpu.execute.lsq.storeBuffer: StoreBuffer step numUnissuedAccesses: 0
 316000: system.cpu.execute.lsq.storeBuffer: StoreBuffer step numUnissuedAccesses: 0
 316500: system.cpu.execute.lsq.storeBuffer: StoreBuffer step numUnissuedAccesses: 0
 368500: system.cpu.execute.lsq.storeBuffer: StoreBuffer step numUnissuedAccesses: 0
 369000: system.cpu.execute.lsq.storeBuffer: StoreBuffer step numUnissuedAccesses: 0
 369500: system.cpu.execute.lsq.storeBuffer: StoreBuffer step numUnissuedAccesses: 0
 370500: system.cpu.execute.lsq.storeBuffer: StoreBuffer step numUnissuedAccesses: 0
 371000: system.cpu.execute.lsq.storeBuffer: StoreBuffer step numUnissuedAccesses: 0
 371500: system.cpu.execute.lsq.storeBuffer: StoreBuffer step numUnissuedAccesses: 0
 372000: system.cpu.execute.lsq.storeBuffer: StoreBuffer step numUnissuedAccesses: 0
 372500: system.cpu.execute.lsq.storeBuffer: StoreBuffer step numUnissuedAccesses: 0
 372500: system.cpu.execute.lsq: Pushing request (store) addr: 0x11c90 size: 8 flags: 0x0 lineWidth : 0x40
 372500: system.cpu.execute.lsq: Setting state from NotIssued to InTranslation for request: 0/3.1/7/31.31 pc: 0x102c2 (c_sd)
 372500: system.cpu.execute.lsq: Submitting DTLB request
 372500: system.cpu.execute.lsq: Received translation response for request: 0/3.1/7/31.31 pc: 0x102c2 (c_sd)
 372500: system.cpu.execute.lsq: Setting state from InTranslation to Translated for request: 0/3.1/7/31.31 pc: 0x102c2 (c_sd)
 372500: system.cpu.execute.lsq: Setting state from Translated to StoreToStoreBuffer for request: 0/3.1/7/31.31 pc: 0x102c2 (c_sd)
 372500: system.cpu.execute.lsq: Moving store into transfers queue
 372500: system.cpu.execute.lsq: Found matching memory response for inst: 0/3.1/7/31.31 pc: 0x102c2 (c_sd)
 372500: system.cpu.execute: Memory response inst: 0/3.1/7/31.31 pc: 0x102c2 (c_sd) addr: 0x1c90 size: 8
 372500: system.cpu.execute.lsq: Sending store: 0/3.1/7/31.31 pc: 0x102c2 (c_sd) to store buffer
 372500: system.cpu.execute.lsq.storeBuffer: Pushing store: 0x508bc00 into store buffer
 372500: system.cpu.execute.lsq: Setting state from StoreToStoreBuffer to StoreInStoreBuffer for request: 0/3.1/7/31.31 pc: 0x102c2 (c_sd)
 373000: system.cpu.execute.lsq: Received response packet inst: 0/2.1/5/22.22 pc: 0x102c2 (c_sd) addr: 0x1c80 cmd: WriteResp
 373000: system.cpu.execute.lsq: Retiring packet
 373000: system.cpu.execute.lsq: Setting state from StoreBufferIssuing to Complete for request: 0/2.1/5/22.22 pc: 0x102c2 (c_sd)
 373000: system.cpu.execute.lsq.storeBuffer: Deleting request: 0x508b900 0x508b900 0/2.1/5/22.22 pc: 0x102c2 (c_sd) from StoreBuffer
 373000: system.cpu.execute.lsq.storeBuffer: StoreBuffer step numUnissuedAccesses: 1
 373000: system.cpu.execute.lsq.storeBuffer: Considering request: 0/2.1/5/23.23 pc: 0x102c4 (c_sd), sentAllPackets: 1 state: StoreBufferIssuing
 373000: system.cpu.execute.lsq.storeBuffer: Considering request: 0/3.1/7/31.31 pc: 0x102c2 (c_sd), sentAllPackets: 0 state: StoreInStoreBuffer
 373000: system.cpu.execute.lsq.storeBuffer: Trying to send request: 0/3.1/7/31.31 pc: 0x102c2 (c_sd) to memory system
 373000: system.cpu.execute.lsq: Trying to send request: 0/3.1/7/31.31 pc: 0x102c2 (c_sd) addr: 0x11c90
 373000: system.cpu.execute.lsq: Sent data memory request
 373000: system.cpu.execute.lsq: Setting state from StoreInStoreBuffer to StoreBufferIssuing for request: 0/3.1/7/31.31 pc: 0x102c2 (c_sd)
 373000: system.cpu.execute.lsq: Pushing request (store) addr: 0x11c98 size: 8 flags: 0x0 lineWidth : 0x40
 373000: system.cpu.execute.lsq: Setting state from NotIssued to InTranslation for request: 0/3.1/7/32.32 pc: 0x102c4 (c_sd)
 373000: system.cpu.execute.lsq: Submitting DTLB request
 373000: system.cpu.execute.lsq: Received translation response for request: 0/3.1/7/32.32 pc: 0x102c4 (c_sd)
 373000: system.cpu.execute.lsq: Setting state from InTranslation to Translated for request: 0/3.1/7/32.32 pc: 0x102c4 (c_sd)
 373000: system.cpu.execute.lsq: Setting state from Translated to StoreToStoreBuffer for request: 0/3.1/7/32.32 pc: 0x102c4 (c_sd)
 373000: system.cpu.execute.lsq: Moving store into transfers queue
 373000: system.cpu.execute.lsq: Found matching memory response for inst: 0/3.1/7/32.32 pc: 0x102c4 (c_sd)
 373000: system.cpu.execute: Memory response inst: 0/3.1/7/32.32 pc: 0x102c4 (c_sd) addr: 0x1c98 size: 8
 373000: system.cpu.execute.lsq: Sending store: 0/3.1/7/32.32 pc: 0x102c4 (c_sd) to store buffer
 373000: system.cpu.execute.lsq.storeBuffer: Pushing store: 0x508b900 into store buffer
 373000: system.cpu.execute.lsq: Setting state from StoreToStoreBuffer to StoreInStoreBuffer for request: 0/3.1/7/32.32 pc: 0x102c4 (c_sd)
 373000: system.cpu.execute.lsq: No matching memory response for inst: 0/3.1/7/33.33 pc: 0x102c6 (c_addi)
 373500: system.cpu.execute.lsq.storeBuffer: StoreBuffer step numUnissuedAccesses: 1
 373500: system.cpu.execute.lsq.storeBuffer: Considering request: 0/2.1/5/23.23 pc: 0x102c4 (c_sd), sentAllPackets: 1 state: StoreBufferIssuing
 373500: system.cpu.execute.lsq.storeBuffer: Considering request: 0/3.1/7/31.31 pc: 0x102c2 (c_sd), sentAllPackets: 1 state: StoreBufferIssuing
 373500: system.cpu.execute.lsq.storeBuffer: Considering request: 0/3.1/7/32.32 pc: 0x102c4 (c_sd), sentAllPackets: 0 state: StoreInStoreBuffer
 373500: system.cpu.execute.lsq.storeBuffer: Trying to send request: 0/3.1/7/32.32 pc: 0x102c4 (c_sd) to memory system
 373500: system.cpu.execute.lsq: Trying to send request: 0/3.1/7/32.32 pc: 0x102c4 (c_sd) addr: 0x11c98
 373500: system.cpu.execute.lsq: Sent data memory request
 373500: system.cpu.execute.lsq: Setting state from StoreInStoreBuffer to StoreBufferIssuing for request: 0/3.1/7/32.32 pc: 0x102c4 (c_sd)
 373500: system.cpu.execute.lsq: No matching memory response for inst: 0/3.1/7/33.33 pc: 0x102c6 (c_addi)
 374000: system.cpu.execute.lsq.storeBuffer: StoreBuffer step numUnissuedAccesses: 0
 374500: system.cpu.execute.lsq.storeBuffer: StoreBuffer step numUnissuedAccesses: 0
 375000: system.cpu.execute.lsq.storeBuffer: StoreBuffer step numUnissuedAccesses: 0
 375500: system.cpu.execute.lsq.storeBuffer: StoreBuffer step numUnissuedAccesses: 0
 376000: system.cpu.execute.lsq.storeBuffer: StoreBuffer step numUnissuedAccesses: 0
 377000: system.cpu.execute.lsq: Received response packet inst: 0/2.1/5/23.23 pc: 0x102c4 (c_sd) addr: 0x1c88 cmd: WriteResp
 377000: system.cpu.execute.lsq: Retiring packet
 377000: system.cpu.execute.lsq: Setting state from StoreBufferIssuing to Complete for request: 0/2.1/5/23.23 pc: 0x102c4 (c_sd)
 377000: system.cpu.execute.lsq.storeBuffer: Deleting request: 0x508bb00 0x508bb00 0/2.1/5/23.23 pc: 0x102c4 (c_sd) from StoreBuffer
 377000: system.cpu.execute.lsq.storeBuffer: StoreBuffer step numUnissuedAccesses: 0
 377500: system.cpu.execute.lsq.storeBuffer: StoreBuffer step numUnissuedAccesses: 0
 378000: system.cpu.execute.lsq: Received response packet inst: 0/3.1/7/31.31 pc: 0x102c2 (c_sd) addr: 0x1c90 cmd: WriteResp
 378000: system.cpu.execute.lsq: Retiring packet
 378000: system.cpu.execute.lsq: Setting state from StoreBufferIssuing to Complete for request: 0/3.1/7/31.31 pc: 0x102c2 (c_sd)
 378000: system.cpu.execute.lsq.storeBuffer: Deleting request: 0x508bc00 0x508bc00 0/3.1/7/31.31 pc: 0x102c2 (c_sd) from StoreBuffer
 378000: system.cpu.execute.lsq.storeBuffer: StoreBuffer step numUnissuedAccesses: 0
 378001: system.cpu.execute.lsq: Received response packet inst: 0/3.1/7/32.32 pc: 0x102c4 (c_sd) addr: 0x1c98 cmd: WriteResp
 378001: system.cpu.execute.lsq: Retiring packet
 378001: system.cpu.execute.lsq: Setting state from StoreBufferIssuing to Complete for request: 0/3.1/7/32.32 pc: 0x102c4 (c_sd)
 378001: system.cpu.execute.lsq.storeBuffer: Deleting request: 0x508b900 0x508b900 0/3.1/7/32.32 pc: 0x102c4 (c_sd) from StoreBuffer
 378500: system.cpu.execute.lsq.storeBuffer: StoreBuffer step numUnissuedAccesses: 0
 379000: system.cpu.execute.lsq.storeBuffer: StoreBuffer step numUnissuedAccesses: 0
 379000: system.cpu.execute.lsq: Pushing request (store) addr: 0x11ca0 size: 8 flags: 0x0 lineWidth : 0x40
 379000: system.cpu.execute.lsq: Setting state from NotIssued to InTranslation for request: 0/4.1/9/40.40 pc: 0x102c2 (c_sd)
 379000: system.cpu.execute.lsq: Submitting DTLB request
 379000: system.cpu.execute.lsq: Received translation response for request: 0/4.1/9/40.40 pc: 0x102c2 (c_sd)
 379000: system.cpu.execute.lsq: Setting state from InTranslation to Translated for request: 0/4.1/9/40.40 pc: 0x102c2 (c_sd)
 379000: system.cpu.execute.lsq: Setting state from Translated to StoreToStoreBuffer for request: 0/4.1/9/40.40 pc: 0x102c2 (c_sd)
 379000: system.cpu.execute.lsq: Moving store into transfers queue
 379000: system.cpu.execute.lsq: Found matching memory response for inst: 0/4.1/9/40.40 pc: 0x102c2 (c_sd)
 379000: system.cpu.execute: Memory response inst: 0/4.1/9/40.40 pc: 0x102c2 (c_sd) addr: 0x1ca0 size: 8
 379000: system.cpu.execute.lsq: Sending store: 0/4.1/9/40.40 pc: 0x102c2 (c_sd) to store buffer
 379000: system.cpu.execute.lsq.storeBuffer: Pushing store: 0x508b900 into store buffer
 379000: system.cpu.execute.lsq: Setting state from StoreToStoreBuffer to StoreInStoreBuffer for request: 0/4.1/9/40.40 pc: 0x102c2 (c_sd)
 379500: system.cpu.execute.lsq.storeBuffer: StoreBuffer step numUnissuedAccesses: 1
 379500: system.cpu.execute.lsq.storeBuffer: Considering request: 0/4.1/9/40.40 pc: 0x102c2 (c_sd), sentAllPackets: 0 state: StoreInStoreBuffer
 379500: system.cpu.execute.lsq.storeBuffer: Trying to send request: 0/4.1/9/40.40 pc: 0x102c2 (c_sd) to memory system
 379500: system.cpu.execute.lsq: Trying to send request: 0/4.1/9/40.40 pc: 0x102c2 (c_sd) addr: 0x11ca0
 379500: system.cpu.execute.lsq: Sent data memory request
 379500: system.cpu.execute.lsq: Setting state from StoreInStoreBuffer to StoreBufferIssuing for request: 0/4.1/9/40.40 pc: 0x102c2 (c_sd)
 379500: system.cpu.execute.lsq: Pushing request (store) addr: 0x11ca8 size: 8 flags: 0x0 lineWidth : 0x40
 379500: system.cpu.execute.lsq: Setting state from NotIssued to InTranslation for request: 0/4.1/9/41.41 pc: 0x102c4 (c_sd)
 379500: system.cpu.execute.lsq: Submitting DTLB request
 379500: system.cpu.execute.lsq: Received translation response for request: 0/4.1/9/41.41 pc: 0x102c4 (c_sd)
 379500: system.cpu.execute.lsq: Setting state from InTranslation to Translated for request: 0/4.1/9/41.41 pc: 0x102c4 (c_sd)
 379500: system.cpu.execute.lsq: Setting state from Translated to StoreToStoreBuffer for request: 0/4.1/9/41.41 pc: 0x102c4 (c_sd)
 379500: system.cpu.execute.lsq: Moving store into transfers queue
 379500: system.cpu.execute.lsq: Found matching memory response for inst: 0/4.1/9/41.41 pc: 0x102c4 (c_sd)
 379500: system.cpu.execute: Memory response inst: 0/4.1/9/41.41 pc: 0x102c4 (c_sd) addr: 0x1ca8 size: 8
 379500: system.cpu.execute.lsq: Sending store: 0/4.1/9/41.41 pc: 0x102c4 (c_sd) to store buffer
 379500: system.cpu.execute.lsq.storeBuffer: Pushing store: 0x508bc00 into store buffer
 379500: system.cpu.execute.lsq: Setting state from StoreToStoreBuffer to StoreInStoreBuffer for request: 0/4.1/9/41.41 pc: 0x102c4 (c_sd)
 379500: system.cpu.execute.lsq: No matching memory response for inst: 0/4.1/9/42.42 pc: 0x102c6 (c_addi)
 380000: system.cpu.execute.lsq.storeBuffer: StoreBuffer step numUnissuedAccesses: 1
 380000: system.cpu.execute.lsq.storeBuffer: Considering request: 0/4.1/9/40.40 pc: 0x102c2 (c_sd), sentAllPackets: 1 state: StoreBufferIssuing
 380000: system.cpu.execute.lsq.storeBuffer: Considering request: 0/4.1/9/41.41 pc: 0x102c4 (c_sd), sentAllPackets: 0 state: StoreInStoreBuffer
 380000: system.cpu.execute.lsq.storeBuffer: Trying to send request: 0/4.1/9/41.41 pc: 0x102c4 (c_sd) to memory system
 380000: system.cpu.execute.lsq: Trying to send request: 0/4.1/9/41.41 pc: 0x102c4 (c_sd) addr: 0x11ca8
 380000: system.cpu.execute.lsq: Sent data memory request
 380000: system.cpu.execute.lsq: Setting state from StoreInStoreBuffer to StoreBufferIssuing for request: 0/4.1/9/41.41 pc: 0x102c4 (c_sd)
 380000: system.cpu.execute.lsq: No matching memory response for inst: 0/4.1/9/42.42 pc: 0x102c6 (c_addi)
 380500: system.cpu.execute.lsq: Received response packet inst: 0/4.1/9/40.40 pc: 0x102c2 (c_sd) addr: 0x1ca0 cmd: WriteResp
 380500: system.cpu.execute.lsq: Retiring packet
 380500: system.cpu.execute.lsq: Setting state from StoreBufferIssuing to Complete for request: 0/4.1/9/40.40 pc: 0x102c2 (c_sd)
 380500: system.cpu.execute.lsq.storeBuffer: Deleting request: 0x508b900 0x508b900 0/4.1/9/40.40 pc: 0x102c2 (c_sd) from StoreBuffer
 380500: system.cpu.execute.lsq.storeBuffer: StoreBuffer step numUnissuedAccesses: 0
 381000: system.cpu.execute.lsq: Received response packet inst: 0/4.1/9/41.41 pc: 0x102c4 (c_sd) addr: 0x1ca8 cmd: WriteResp
 381000: system.cpu.execute.lsq: Retiring packet
 381000: system.cpu.execute.lsq: Setting state from StoreBufferIssuing to Complete for request: 0/4.1/9/41.41 pc: 0x102c4 (c_sd)
 381000: system.cpu.execute.lsq.storeBuffer: Deleting request: 0x508bc00 0x508bc00 0/4.1/9/41.41 pc: 0x102c4 (c_sd) from StoreBuffer
 381000: system.cpu.execute.lsq.storeBuffer: StoreBuffer step numUnissuedAccesses: 0
 381500: system.cpu.execute.lsq.storeBuffer: StoreBuffer step numUnissuedAccesses: 0
 382000: system.cpu.execute.lsq.storeBuffer: StoreBuffer step numUnissuedAccesses: 0
 382500: system.cpu.execute.lsq.storeBuffer: StoreBuffer step numUnissuedAccesses: 0
 383000: system.cpu.execute.lsq.storeBuffer: StoreBuffer step numUnissuedAccesses: 0
 384000: system.cpu.execute.lsq.storeBuffer: StoreBuffer step numUnissuedAccesses: 0
 384500: system.cpu.execute.lsq.storeBuffer: StoreBuffer step numUnissuedAccesses: 0
 385000: system.cpu.execute.lsq.storeBuffer: StoreBuffer step numUnissuedAccesses: 0
 385500: system.cpu.execute.lsq.storeBuffer: StoreBuffer step numUnissuedAccesses: 0
 385500: system.cpu.execute.lsq: No matching memory response for inst: 0/5.1/11/50.50 pc: 0x102d0 (sub)
 386000: system.cpu.execute.lsq.storeBuffer: StoreBuffer step numUnissuedAccesses: 0
 386000: system.cpu.execute.lsq: No matching memory response for inst: 0/5.1/11/50.50 pc: 0x102d0 (sub)
 386500: system.cpu.execute.lsq.storeBuffer: StoreBuffer step numUnissuedAccesses: 0
 387000: system.cpu.execute.lsq.storeBuffer: StoreBuffer step numUnissuedAccesses: 0
 387500: system.cpu.execute.lsq.storeBuffer: StoreBuffer step numUnissuedAccesses: 0
 388000: system.cpu.execute.lsq.storeBuffer: StoreBuffer step numUnissuedAccesses: 0
 388500: system.cpu.execute.lsq.storeBuffer: StoreBuffer step numUnissuedAccesses: 0
 388500: system.cpu.execute.lsq: Pushing request (store) addr: 0x11cbe size: 1 flags: 0x0 lineWidth : 0x40
 388500: system.cpu.execute.lsq: Setting state from NotIssued to InTranslation for request: 0/5.1/11/55.55 pc: 0x102e0 (sb)
 388500: system.cpu.execute.lsq: Submitting DTLB request
 388500: system.cpu.execute.lsq: Received translation response for request: 0/5.1/11/55.55 pc: 0x102e0 (sb)
 388500: system.cpu.execute.lsq: Setting state from InTranslation to Translated for request: 0/5.1/11/55.55 pc: 0x102e0 (sb)
 388500: system.cpu.execute.lsq: Setting state from Translated to StoreToStoreBuffer for request: 0/5.1/11/55.55 pc: 0x102e0 (sb)
 388500: system.cpu.execute.lsq: Moving store into transfers queue
 389000: system.cpu.execute.lsq.storeBuffer: StoreBuffer step numUnissuedAccesses: 0
 389000: system.cpu.execute.lsq: Pushing request (store) addr: 0x11cbd size: 1 flags: 0x0 lineWidth : 0x40
 389000: system.cpu.execute.lsq: Setting state from NotIssued to InTranslation for request: 0/5.1/11/56.56 pc: 0x102e4 (sb)
 389000: system.cpu.execute.lsq: Submitting DTLB request
 389000: system.cpu.execute.lsq: Received translation response for request: 0/5.1/11/56.56 pc: 0x102e4 (sb)
 389000: system.cpu.execute.lsq: Setting state from InTranslation to Translated for request: 0/5.1/11/56.56 pc: 0x102e4 (sb)
 389000: system.cpu.execute.lsq: Setting state from Translated to StoreToStoreBuffer for request: 0/5.1/11/56.56 pc: 0x102e4 (sb)
 389000: system.cpu.execute.lsq: Moving store into transfers queue
 389000: system.cpu.execute.lsq: Found matching memory response for inst: 0/5.1/11/55.55 pc: 0x102e0 (sb)
 389500: system.cpu.execute.lsq.storeBuffer: StoreBuffer step numUnissuedAccesses: 0
 389500: system.cpu.execute.lsq: Found matching memory response for inst: 0/5.1/11/55.55 pc: 0x102e0 (sb)
 389500: system.cpu.execute.lsq: Found matching memory response for inst: 0/5.1/11/55.55 pc: 0x102e0 (sb)
 389500: system.cpu.execute.lsq: Deleting store request: 0/5.1/11/55.55 pc: 0x102e0 (sb)
 389500: system.cpu.execute.lsq: Found matching memory response for inst: 0/5.1/11/56.56 pc: 0x102e4 (sb)
 389500: system.cpu.execute.lsq: Deleting store request: 0/5.1/11/56.56 pc: 0x102e4 (sb)
 390000: system.cpu.execute.lsq.storeBuffer: StoreBuffer step numUnissuedAccesses: 0
 391000: system.cpu.execute.lsq.storeBuffer: StoreBuffer step numUnissuedAccesses: 0
 391500: system.cpu.execute.lsq.storeBuffer: StoreBuffer step numUnissuedAccesses: 0
 392000: system.cpu.execute.lsq.storeBuffer: StoreBuffer step numUnissuedAccesses: 0
 392500: system.cpu.execute.lsq.storeBuffer: StoreBuffer step numUnissuedAccesses: 0
 393000: system.cpu.execute.lsq.storeBuffer: StoreBuffer step numUnissuedAccesses: 0
 393000: system.cpu.execute.lsq: Pushing request (store) addr: 0x11cb7 size: 1 flags: 0x0 lineWidth : 0x40
 393000: system.cpu.execute.lsq: Setting state from NotIssued to InTranslation for request: 0/6.1/13/60.60 pc: 0x102fc (sb)
 393000: system.cpu.execute.lsq: Submitting DTLB request
 393000: system.cpu.execute.lsq: Received translation response for request: 0/6.1/13/60.60 pc: 0x102fc (sb)
 393000: system.cpu.execute.lsq: Setting state from InTranslation to Translated for request: 0/6.1/13/60.60 pc: 0x102fc (sb)
 393000: system.cpu.execute.lsq: Setting state from Translated to StoreToStoreBuffer for request: 0/6.1/13/60.60 pc: 0x102fc (sb)
 393000: system.cpu.execute.lsq: Moving store into transfers queue
 393000: system.cpu.execute.lsq: Found matching memory response for inst: 0/6.1/13/60.60 pc: 0x102fc (sb)
 393000: system.cpu.execute: Memory response inst: 0/6.1/13/60.60 pc: 0x102fc (sb) addr: 0x1cb7 size: 1
 393000: system.cpu.execute.lsq: Sending store: 0/6.1/13/60.60 pc: 0x102fc (sb) to store buffer
 393000: system.cpu.execute.lsq.storeBuffer: Pushing store: 0x508bb00 into store buffer
 393000: system.cpu.execute.lsq: Setting state from StoreToStoreBuffer to StoreInStoreBuffer for request: 0/6.1/13/60.60 pc: 0x102fc (sb)
 393500: system.cpu.execute.lsq.storeBuffer: StoreBuffer step numUnissuedAccesses: 1
 393500: system.cpu.execute.lsq.storeBuffer: Considering request: 0/6.1/13/60.60 pc: 0x102fc (sb), sentAllPackets: 0 state: StoreInStoreBuffer
 393500: system.cpu.execute.lsq.storeBuffer: Trying to send request: 0/6.1/13/60.60 pc: 0x102fc (sb) to memory system
 393500: system.cpu.execute.lsq: Trying to send request: 0/6.1/13/60.60 pc: 0x102fc (sb) addr: 0x11cb7
 393500: system.cpu.execute.lsq: Sent data memory request
 393500: system.cpu.execute.lsq: Setting state from StoreInStoreBuffer to StoreBufferIssuing for request: 0/6.1/13/60.60 pc: 0x102fc (sb)
 394000: system.cpu.execute.lsq.storeBuffer: StoreBuffer step numUnissuedAccesses: 0
 394500: system.cpu.execute.lsq: Received response packet inst: 0/6.1/13/60.60 pc: 0x102fc (sb) addr: 0x1cb7 cmd: WriteResp
 394500: system.cpu.execute.lsq: Retiring packet
 394500: system.cpu.execute.lsq: Setting state from StoreBufferIssuing to Complete for request: 0/6.1/13/60.60 pc: 0x102fc (sb)
 394500: system.cpu.execute.lsq.storeBuffer: Deleting request: 0x508bb00 0x508bb00 0/6.1/13/60.60 pc: 0x102fc (sb) from StoreBuffer
 394500: system.cpu.execute.lsq.storeBuffer: StoreBuffer step numUnissuedAccesses: 0
 394500: system.cpu.execute.lsq: Pushing request (store) addr: 0x11cb6 size: 1 flags: 0x0 lineWidth : 0x40
 394500: system.cpu.execute.lsq: Setting state from NotIssued to InTranslation for request: 0/6.1/14/61.61 pc: 0x10300 (sb)
 394500: system.cpu.execute.lsq: Submitting DTLB request
 394500: system.cpu.execute.lsq: Received translation response for request: 0/6.1/14/61.61 pc: 0x10300 (sb)
 394500: system.cpu.execute.lsq: Setting state from InTranslation to Translated for request: 0/6.1/14/61.61 pc: 0x10300 (sb)
 394500: system.cpu.execute.lsq: Setting state from Translated to StoreToStoreBuffer for request: 0/6.1/14/61.61 pc: 0x10300 (sb)
 394500: system.cpu.execute.lsq: Moving store into transfers queue
 394500: system.cpu.execute.lsq: Found matching memory response for inst: 0/6.1/14/61.61 pc: 0x10300 (sb)
 394500: system.cpu.execute: Memory response inst: 0/6.1/14/61.61 pc: 0x10300 (sb) addr: 0x1cb6 size: 1
 394500: system.cpu.execute.lsq: Sending store: 0/6.1/14/61.61 pc: 0x10300 (sb) to store buffer
 394500: system.cpu.execute.lsq.storeBuffer: Pushing store: 0x508bb00 into store buffer
 394500: system.cpu.execute.lsq: Setting state from StoreToStoreBuffer to StoreInStoreBuffer for request: 0/6.1/14/61.61 pc: 0x10300 (sb)
 395000: system.cpu.execute.lsq.storeBuffer: StoreBuffer step numUnissuedAccesses: 1
 395000: system.cpu.execute.lsq.storeBuffer: Considering request: 0/6.1/14/61.61 pc: 0x10300 (sb), sentAllPackets: 0 state: StoreInStoreBuffer
 395000: system.cpu.execute.lsq.storeBuffer: Trying to send request: 0/6.1/14/61.61 pc: 0x10300 (sb) to memory system
 395000: system.cpu.execute.lsq: Trying to send request: 0/6.1/14/61.61 pc: 0x10300 (sb) addr: 0x11cb6
 395000: system.cpu.execute.lsq: Sent data memory request
 395000: system.cpu.execute.lsq: Setting state from StoreInStoreBuffer to StoreBufferIssuing for request: 0/6.1/14/61.61 pc: 0x10300 (sb)
 395000: system.cpu.execute.lsq: Pushing request (store) addr: 0x11cb5 size: 1 flags: 0x0 lineWidth : 0x40
 395000: system.cpu.execute.lsq: Setting state from NotIssued to InTranslation for request: 0/6.1/14/62.62 pc: 0x10304 (sb)
 395000: system.cpu.execute.lsq: Submitting DTLB request
 395000: system.cpu.execute.lsq: Received translation response for request: 0/6.1/14/62.62 pc: 0x10304 (sb)
 395000: system.cpu.execute.lsq: Setting state from InTranslation to Translated for request: 0/6.1/14/62.62 pc: 0x10304 (sb)
 395000: system.cpu.execute.lsq: Setting state from Translated to StoreToStoreBuffer for request: 0/6.1/14/62.62 pc: 0x10304 (sb)
 395000: system.cpu.execute.lsq: Moving store into transfers queue
 395000: system.cpu.execute.lsq: Found matching memory response for inst: 0/6.1/14/62.62 pc: 0x10304 (sb)
 395000: system.cpu.execute: Memory response inst: 0/6.1/14/62.62 pc: 0x10304 (sb) addr: 0x1cb5 size: 1
 395000: system.cpu.execute.lsq: Sending store: 0/6.1/14/62.62 pc: 0x10304 (sb) to store buffer
 395000: system.cpu.execute.lsq.storeBuffer: Pushing store: 0x508b880 into store buffer
 395000: system.cpu.execute.lsq: Setting state from StoreToStoreBuffer to StoreInStoreBuffer for request: 0/6.1/14/62.62 pc: 0x10304 (sb)
 395500: system.cpu.execute.lsq.storeBuffer: StoreBuffer step numUnissuedAccesses: 1
 395500: system.cpu.execute.lsq.storeBuffer: Considering request: 0/6.1/14/61.61 pc: 0x10300 (sb), sentAllPackets: 1 state: StoreBufferIssuing
 395500: system.cpu.execute.lsq.storeBuffer: Considering request: 0/6.1/14/62.62 pc: 0x10304 (sb), sentAllPackets: 0 state: StoreInStoreBuffer
 395500: system.cpu.execute.lsq.storeBuffer: Trying to send request: 0/6.1/14/62.62 pc: 0x10304 (sb) to memory system
 395500: system.cpu.execute.lsq: Trying to send request: 0/6.1/14/62.62 pc: 0x10304 (sb) addr: 0x11cb5
 395500: system.cpu.execute.lsq: Sent data memory request
 395500: system.cpu.execute.lsq: Setting state from StoreInStoreBuffer to StoreBufferIssuing for request: 0/6.1/14/62.62 pc: 0x10304 (sb)
 395500: system.cpu.execute.lsq: Pushing request (store) addr: 0x11cb4 size: 1 flags: 0x0 lineWidth : 0x40
 395500: system.cpu.execute.lsq: Setting state from NotIssued to InTranslation for request: 0/6.1/14/63.63 pc: 0x10308 (sb)
 395500: system.cpu.execute.lsq: Submitting DTLB request
 395500: system.cpu.execute.lsq: Received translation response for request: 0/6.1/14/63.63 pc: 0x10308 (sb)
 395500: system.cpu.execute.lsq: Setting state from InTranslation to Translated for request: 0/6.1/14/63.63 pc: 0x10308 (sb)
 395500: system.cpu.execute.lsq: Setting state from Translated to StoreToStoreBuffer for request: 0/6.1/14/63.63 pc: 0x10308 (sb)
 395500: system.cpu.execute.lsq: Moving store into transfers queue
 395500: system.cpu.execute.lsq: Found matching memory response for inst: 0/6.1/14/63.63 pc: 0x10308 (sb)
 395500: system.cpu.execute: Memory response inst: 0/6.1/14/63.63 pc: 0x10308 (sb) addr: 0x1cb4 size: 1
 395500: system.cpu.execute.lsq: Sending store: 0/6.1/14/63.63 pc: 0x10308 (sb) to store buffer
 395500: system.cpu.execute.lsq.storeBuffer: Pushing store: 0x508ba00 into store buffer
 395500: system.cpu.execute.lsq: Setting state from StoreToStoreBuffer to StoreInStoreBuffer for request: 0/6.1/14/63.63 pc: 0x10308 (sb)
 396000: system.cpu.execute.lsq: Received response packet inst: 0/6.1/14/61.61 pc: 0x10300 (sb) addr: 0x1cb6 cmd: WriteResp
 396000: system.cpu.execute.lsq: Retiring packet
 396000: system.cpu.execute.lsq: Setting state from StoreBufferIssuing to Complete for request: 0/6.1/14/61.61 pc: 0x10300 (sb)
 396000: system.cpu.execute.lsq.storeBuffer: Deleting request: 0x508bb00 0x508bb00 0/6.1/14/61.61 pc: 0x10300 (sb) from StoreBuffer
 396000: system.cpu.execute.lsq.storeBuffer: StoreBuffer step numUnissuedAccesses: 1
 396000: system.cpu.execute.lsq.storeBuffer: Considering request: 0/6.1/14/62.62 pc: 0x10304 (sb), sentAllPackets: 1 state: StoreBufferIssuing
 396000: system.cpu.execute.lsq.storeBuffer: Considering request: 0/6.1/14/63.63 pc: 0x10308 (sb), sentAllPackets: 0 state: StoreInStoreBuffer
 396000: system.cpu.execute.lsq.storeBuffer: Trying to send request: 0/6.1/14/63.63 pc: 0x10308 (sb) to memory system
 396000: system.cpu.execute.lsq: Trying to send request: 0/6.1/14/63.63 pc: 0x10308 (sb) addr: 0x11cb4
 396000: system.cpu.execute.lsq: Sent data memory request
 396000: system.cpu.execute.lsq: Setting state from StoreInStoreBuffer to StoreBufferIssuing for request: 0/6.1/14/63.63 pc: 0x10308 (sb)
 396000: system.cpu.execute.lsq: Pushing request (store) addr: 0x11cb3 size: 1 flags: 0x0 lineWidth : 0x40
 396000: system.cpu.execute.lsq: Setting state from NotIssued to InTranslation for request: 0/6.1/14/64.64 pc: 0x1030c (sb)
 396000: system.cpu.execute.lsq: Submitting DTLB request
 396000: system.cpu.execute.lsq: Received translation response for request: 0/6.1/14/64.64 pc: 0x1030c (sb)
 396000: system.cpu.execute.lsq: Setting state from InTranslation to Translated for request: 0/6.1/14/64.64 pc: 0x1030c (sb)
 396000: system.cpu.execute.lsq: Setting state from Translated to StoreToStoreBuffer for request: 0/6.1/14/64.64 pc: 0x1030c (sb)
 396000: system.cpu.execute.lsq: Moving store into transfers queue
 396000: system.cpu.execute.lsq: Found matching memory response for inst: 0/6.1/14/64.64 pc: 0x1030c (sb)
 396000: system.cpu.execute: Memory response inst: 0/6.1/14/64.64 pc: 0x1030c (sb) addr: 0x1cb3 size: 1
 396000: system.cpu.execute.lsq: Sending store: 0/6.1/14/64.64 pc: 0x1030c (sb) to store buffer
 396000: system.cpu.execute.lsq.storeBuffer: Pushing store: 0x508bb00 into store buffer
 396000: system.cpu.execute.lsq: Setting state from StoreToStoreBuffer to StoreInStoreBuffer for request: 0/6.1/14/64.64 pc: 0x1030c (sb)
 396500: system.cpu.execute.lsq: Received response packet inst: 0/6.1/14/62.62 pc: 0x10304 (sb) addr: 0x1cb5 cmd: WriteResp
 396500: system.cpu.execute.lsq: Retiring packet
 396500: system.cpu.execute.lsq: Setting state from StoreBufferIssuing to Complete for request: 0/6.1/14/62.62 pc: 0x10304 (sb)
 396500: system.cpu.execute.lsq.storeBuffer: Deleting request: 0x508b880 0x508b880 0/6.1/14/62.62 pc: 0x10304 (sb) from StoreBuffer
 396500: system.cpu.execute.lsq.storeBuffer: StoreBuffer step numUnissuedAccesses: 1
 396500: system.cpu.execute.lsq.storeBuffer: Considering request: 0/6.1/14/63.63 pc: 0x10308 (sb), sentAllPackets: 1 state: StoreBufferIssuing
 396500: system.cpu.execute.lsq.storeBuffer: Considering request: 0/6.1/14/64.64 pc: 0x1030c (sb), sentAllPackets: 0 state: StoreInStoreBuffer
 396500: system.cpu.execute.lsq.storeBuffer: Trying to send request: 0/6.1/14/64.64 pc: 0x1030c (sb) to memory system
 396500: system.cpu.execute.lsq: Trying to send request: 0/6.1/14/64.64 pc: 0x1030c (sb) addr: 0x11cb3
 396500: system.cpu.execute.lsq: Sent data memory request
 396500: system.cpu.execute.lsq: Setting state from StoreInStoreBuffer to StoreBufferIssuing for request: 0/6.1/14/64.64 pc: 0x1030c (sb)
 396500: system.cpu.execute.lsq: Pushing request (store) addr: 0x11cb2 size: 1 flags: 0x0 lineWidth : 0x40
 396500: system.cpu.execute.lsq: Setting state from NotIssued to InTranslation for request: 0/6.1/14/65.65 pc: 0x10310 (sb)
 396500: system.cpu.execute.lsq: Submitting DTLB request
 396500: system.cpu.execute.lsq: Received translation response for request: 0/6.1/14/65.65 pc: 0x10310 (sb)
 396500: system.cpu.execute.lsq: Setting state from InTranslation to Translated for request: 0/6.1/14/65.65 pc: 0x10310 (sb)
 396500: system.cpu.execute.lsq: Setting state from Translated to StoreToStoreBuffer for request: 0/6.1/14/65.65 pc: 0x10310 (sb)
 396500: system.cpu.execute.lsq: Moving store into transfers queue
 396500: system.cpu.execute.lsq: Found matching memory response for inst: 0/6.1/14/65.65 pc: 0x10310 (sb)
 396500: system.cpu.execute: Memory response inst: 0/6.1/14/65.65 pc: 0x10310 (sb) addr: 0x1cb2 size: 1
 396500: system.cpu.execute.lsq: Sending store: 0/6.1/14/65.65 pc: 0x10310 (sb) to store buffer
 396500: system.cpu.execute.lsq.storeBuffer: Pushing store: 0x508b880 into store buffer
 396500: system.cpu.execute.lsq: Setting state from StoreToStoreBuffer to StoreInStoreBuffer for request: 0/6.1/14/65.65 pc: 0x10310 (sb)
 397000: system.cpu.execute.lsq: Received response packet inst: 0/6.1/14/63.63 pc: 0x10308 (sb) addr: 0x1cb4 cmd: WriteResp
 397000: system.cpu.execute.lsq: Retiring packet
 397000: system.cpu.execute.lsq: Setting state from StoreBufferIssuing to Complete for request: 0/6.1/14/63.63 pc: 0x10308 (sb)
 397000: system.cpu.execute.lsq.storeBuffer: Deleting request: 0x508ba00 0x508ba00 0/6.1/14/63.63 pc: 0x10308 (sb) from StoreBuffer
 397000: system.cpu.execute.lsq.storeBuffer: StoreBuffer step numUnissuedAccesses: 1
 397000: system.cpu.execute.lsq.storeBuffer: Considering request: 0/6.1/14/64.64 pc: 0x1030c (sb), sentAllPackets: 1 state: StoreBufferIssuing
 397000: system.cpu.execute.lsq.storeBuffer: Considering request: 0/6.1/14/65.65 pc: 0x10310 (sb), sentAllPackets: 0 state: StoreInStoreBuffer
 397000: system.cpu.execute.lsq.storeBuffer: Trying to send request: 0/6.1/14/65.65 pc: 0x10310 (sb) to memory system
 397000: system.cpu.execute.lsq: Trying to send request: 0/6.1/14/65.65 pc: 0x10310 (sb) addr: 0x11cb2
 397000: system.cpu.execute.lsq: Sent data memory request
 397000: system.cpu.execute.lsq: Setting state from StoreInStoreBuffer to StoreBufferIssuing for request: 0/6.1/14/65.65 pc: 0x10310 (sb)
 397000: system.cpu.execute.lsq: Pushing request (store) addr: 0x11cb1 size: 1 flags: 0x0 lineWidth : 0x40
 397000: system.cpu.execute.lsq: Setting state from NotIssued to InTranslation for request: 0/6.1/14/66.66 pc: 0x10314 (sb)
 397000: system.cpu.execute.lsq: Submitting DTLB request
 397000: system.cpu.execute.lsq: Received translation response for request: 0/6.1/14/66.66 pc: 0x10314 (sb)
 397000: system.cpu.execute.lsq: Setting state from InTranslation to Translated for request: 0/6.1/14/66.66 pc: 0x10314 (sb)
 397000: system.cpu.execute.lsq: Setting state from Translated to StoreToStoreBuffer for request: 0/6.1/14/66.66 pc: 0x10314 (sb)
 397000: system.cpu.execute.lsq: Moving store into transfers queue
 397000: system.cpu.execute.lsq: Found matching memory response for inst: 0/6.1/14/66.66 pc: 0x10314 (sb)
 397000: system.cpu.execute: Memory response inst: 0/6.1/14/66.66 pc: 0x10314 (sb) addr: 0x1cb1 size: 1
 397000: system.cpu.execute.lsq: Sending store: 0/6.1/14/66.66 pc: 0x10314 (sb) to store buffer
 397000: system.cpu.execute.lsq.storeBuffer: Pushing store: 0x508ba00 into store buffer
 397000: system.cpu.execute.lsq: Setting state from StoreToStoreBuffer to StoreInStoreBuffer for request: 0/6.1/14/66.66 pc: 0x10314 (sb)
 397500: system.cpu.execute.lsq: Received response packet inst: 0/6.1/14/64.64 pc: 0x1030c (sb) addr: 0x1cb3 cmd: WriteResp
 397500: system.cpu.execute.lsq: Retiring packet
 397500: system.cpu.execute.lsq: Setting state from StoreBufferIssuing to Complete for request: 0/6.1/14/64.64 pc: 0x1030c (sb)
 397500: system.cpu.execute.lsq.storeBuffer: Deleting request: 0x508bb00 0x508bb00 0/6.1/14/64.64 pc: 0x1030c (sb) from StoreBuffer
 397500: system.cpu.execute.lsq.storeBuffer: StoreBuffer step numUnissuedAccesses: 1
 397500: system.cpu.execute.lsq.storeBuffer: Considering request: 0/6.1/14/65.65 pc: 0x10310 (sb), sentAllPackets: 1 state: StoreBufferIssuing
 397500: system.cpu.execute.lsq.storeBuffer: Considering request: 0/6.1/14/66.66 pc: 0x10314 (sb), sentAllPackets: 0 state: StoreInStoreBuffer
 397500: system.cpu.execute.lsq.storeBuffer: Trying to send request: 0/6.1/14/66.66 pc: 0x10314 (sb) to memory system
 397500: system.cpu.execute.lsq: Trying to send request: 0/6.1/14/66.66 pc: 0x10314 (sb) addr: 0x11cb1
 397500: system.cpu.execute.lsq: Sent data memory request
 397500: system.cpu.execute.lsq: Setting state from StoreInStoreBuffer to StoreBufferIssuing for request: 0/6.1/14/66.66 pc: 0x10314 (sb)
 397500: system.cpu.execute.lsq: Pushing request (store) addr: 0x11cb0 size: 1 flags: 0x0 lineWidth : 0x40
 397500: system.cpu.execute.lsq: Setting state from NotIssued to InTranslation for request: 0/6.1/14/67.67 pc: 0x10318 (sb)
 397500: system.cpu.execute.lsq: Submitting DTLB request
 397500: system.cpu.execute.lsq: Received translation response for request: 0/6.1/14/67.67 pc: 0x10318 (sb)
 397500: system.cpu.execute.lsq: Setting state from InTranslation to Translated for request: 0/6.1/14/67.67 pc: 0x10318 (sb)
 397500: system.cpu.execute.lsq: Setting state from Translated to StoreToStoreBuffer for request: 0/6.1/14/67.67 pc: 0x10318 (sb)
 397500: system.cpu.execute.lsq: Moving store into transfers queue
 397500: system.cpu.execute.lsq: Found matching memory response for inst: 0/6.1/14/67.67 pc: 0x10318 (sb)
 397500: system.cpu.execute: Memory response inst: 0/6.1/14/67.67 pc: 0x10318 (sb) addr: 0x1cb0 size: 1
 397500: system.cpu.execute.lsq: Sending store: 0/6.1/14/67.67 pc: 0x10318 (sb) to store buffer
 397500: system.cpu.execute.lsq.storeBuffer: Pushing store: 0x508bb00 into store buffer
 397500: system.cpu.execute.lsq: Setting state from StoreToStoreBuffer to StoreInStoreBuffer for request: 0/6.1/14/67.67 pc: 0x10318 (sb)
 397500: system.cpu.execute.lsq: No matching memory response for inst: 0/6.1/14/68.68 pc: 0x1031c (c_jr)
 398000: system.cpu.execute.lsq: Received response packet inst: 0/6.1/14/65.65 pc: 0x10310 (sb) addr: 0x1cb2 cmd: WriteResp
 398000: system.cpu.execute.lsq: Retiring packet
 398000: system.cpu.execute.lsq: Setting state from StoreBufferIssuing to Complete for request: 0/6.1/14/65.65 pc: 0x10310 (sb)
 398000: system.cpu.execute.lsq.storeBuffer: Deleting request: 0x508b880 0x508b880 0/6.1/14/65.65 pc: 0x10310 (sb) from StoreBuffer
 398000: system.cpu.execute.lsq.storeBuffer: StoreBuffer step numUnissuedAccesses: 1
 398000: system.cpu.execute.lsq.storeBuffer: Considering request: 0/6.1/14/66.66 pc: 0x10314 (sb), sentAllPackets: 1 state: StoreBufferIssuing
 398000: system.cpu.execute.lsq.storeBuffer: Considering request: 0/6.1/14/67.67 pc: 0x10318 (sb), sentAllPackets: 0 state: StoreInStoreBuffer
 398000: system.cpu.execute.lsq.storeBuffer: Trying to send request: 0/6.1/14/67.67 pc: 0x10318 (sb) to memory system
 398000: system.cpu.execute.lsq: Trying to send request: 0/6.1/14/67.67 pc: 0x10318 (sb) addr: 0x11cb0
 398000: system.cpu.execute.lsq: Sent data memory request
 398000: system.cpu.execute.lsq: Setting state from StoreInStoreBuffer to StoreBufferIssuing for request: 0/6.1/14/67.67 pc: 0x10318 (sb)
 398000: system.cpu.execute.lsq: No matching memory response for inst: 0/6.1/14/68.68 pc: 0x1031c (c_jr)
 398500: system.cpu.execute.lsq: Received response packet inst: 0/6.1/14/66.66 pc: 0x10314 (sb) addr: 0x1cb1 cmd: WriteResp
 398500: system.cpu.execute.lsq: Retiring packet
 398500: system.cpu.execute.lsq: Setting state from StoreBufferIssuing to Complete for request: 0/6.1/14/66.66 pc: 0x10314 (sb)
 398500: system.cpu.execute.lsq.storeBuffer: Deleting request: 0x508ba00 0x508ba00 0/6.1/14/66.66 pc: 0x10314 (sb) from StoreBuffer
 398500: system.cpu.execute.lsq.storeBuffer: StoreBuffer step numUnissuedAccesses: 0
 399000: system.cpu.execute.lsq: Received response packet inst: 0/6.1/14/67.67 pc: 0x10318 (sb) addr: 0x1cb0 cmd: WriteResp
 399000: system.cpu.execute.lsq: Retiring packet
 399000: system.cpu.execute.lsq: Setting state from StoreBufferIssuing to Complete for request: 0/6.1/14/67.67 pc: 0x10318 (sb)
 399000: system.cpu.execute.lsq.storeBuffer: Deleting request: 0x508bb00 0x508bb00 0/6.1/14/67.67 pc: 0x10318 (sb) from StoreBuffer
 399000: system.cpu.execute.lsq.storeBuffer: StoreBuffer step numUnissuedAccesses: 0
 399500: system.cpu.execute.lsq.storeBuffer: StoreBuffer step numUnissuedAccesses: 0
 400000: system.cpu.execute.lsq.storeBuffer: StoreBuffer step numUnissuedAccesses: 0
 450500: system.cpu.execute.lsq.storeBuffer: StoreBuffer step numUnissuedAccesses: 0
 451000: system.cpu.execute.lsq.storeBuffer: StoreBuffer step numUnissuedAccesses: 0
 451500: system.cpu.execute.lsq.storeBuffer: StoreBuffer step numUnissuedAccesses: 0
 452500: system.cpu.execute.lsq.storeBuffer: StoreBuffer step numUnissuedAccesses: 0
 453000: system.cpu.execute.lsq.storeBuffer: StoreBuffer step numUnissuedAccesses: 0
 453500: system.cpu.execute.lsq.storeBuffer: StoreBuffer step numUnissuedAccesses: 0
 454000: system.cpu.execute.lsq.storeBuffer: StoreBuffer step numUnissuedAccesses: 0
 454000: system.cpu.execute.lsq: No matching memory response for inst: 0/7.1/16/74.74 pc: 0x10108 (auipc)
 454500: system.cpu.execute.lsq.storeBuffer: StoreBuffer step numUnissuedAccesses: 0
 454500: system.cpu.execute.lsq: No matching memory response for inst: 0/7.1/16/74.74 pc: 0x10108 (auipc)
 455000: system.cpu.execute.lsq.storeBuffer: StoreBuffer step numUnissuedAccesses: 0
 455500: system.cpu.execute.lsq.storeBuffer: StoreBuffer step numUnissuedAccesses: 0
 456000: system.cpu.execute.lsq.storeBuffer: StoreBuffer step numUnissuedAccesses: 0
 456500: system.cpu.execute.lsq.storeBuffer: StoreBuffer step numUnissuedAccesses: 0
 456500: system.cpu.execute.lsq: Pushing request (load) addr: 0x7fffffffffffff40 size: 4 flags: 0x0 lineWidth : 0x40
 456500: system.cpu.execute.lsq: Setting state from NotIssued to InTranslation for request: 0/7.1/16/78.78 pc: 0x10118 (c_lwsp)
 456500: system.cpu.execute.lsq: Submitting DTLB request
 456500: system.cpu.execute.lsq: Received translation response for request: 0/7.1/16/78.78 pc: 0x10118 (c_lwsp)
 456500: system.cpu.execute.lsq: Setting state from InTranslation to Translated for request: 0/7.1/16/78.78 pc: 0x10118 (c_lwsp)
 456500: system.cpu.execute.lsq: No forwardable data from store buffer
 456500: system.cpu.execute.lsq: Trying to send request: 0/7.1/16/78.78 pc: 0x10118 (c_lwsp) addr: 0x7fffffffffffff40
 456500: system.cpu.execute.lsq: Sent data memory request
 456500: system.cpu.execute.lsq: Setting state from Translated to RequestIssuing for request: 0/7.1/16/78.78 pc: 0x10118 (c_lwsp)
 457000: system.cpu.execute.lsq.storeBuffer: StoreBuffer step numUnissuedAccesses: 0
 457000: system.cpu.execute.lsq: No matching memory response for inst: 0/7.1/16/78.78 pc: 0x10118 (c_lwsp)
 457000: system.cpu.execute.lsq: No matching memory response for inst: 0/7.1/16/78.78 pc: 0x10118 (c_lwsp)
 457500: system.cpu.execute.lsq.storeBuffer: StoreBuffer step numUnissuedAccesses: 0
 457500: system.cpu.execute.lsq: No matching memory response for inst: 0/7.1/16/78.78 pc: 0x10118 (c_lwsp)
 457500: system.cpu.execute.lsq: No matching memory response for inst: 0/7.1/16/78.78 pc: 0x10118 (c_lwsp)
 528000: system.cpu.execute.lsq: Received response packet inst: 0/7.1/16/78.78 pc: 0x10118 (c_lwsp) addr: 0x2f40 cmd: ReadResp
 528000: system.cpu.execute.lsq: Retiring packet
 528000: system.cpu.execute.lsq: Setting state from RequestIssuing to Complete for request: 0/7.1/16/78.78 pc: 0x10118 (c_lwsp)
 528000: system.cpu.execute.lsq: Has outstanding packets?: 0 1
 528500: system.cpu.execute.lsq.storeBuffer: StoreBuffer step numUnissuedAccesses: 0
 528500: system.cpu.execute.lsq: Found matching memory response for inst: 0/7.1/16/78.78 pc: 0x10118 (c_lwsp)
 528500: system.cpu.execute.lsq: Found matching memory response for inst: 0/7.1/16/78.78 pc: 0x10118 (c_lwsp)
 528500: system.cpu.execute.lsq: Deleting load request: 0/7.1/16/78.78 pc: 0x10118 (c_lwsp)
 529000: system.cpu.execute.lsq.storeBuffer: StoreBuffer step numUnissuedAccesses: 0
 532500: system.cpu.execute.lsq.storeBuffer: StoreBuffer step numUnissuedAccesses: 0
 533000: system.cpu.execute.lsq.storeBuffer: StoreBuffer step numUnissuedAccesses: 0
 533500: system.cpu.execute.lsq.storeBuffer: StoreBuffer step numUnissuedAccesses: 0
 534000: system.cpu.execute.lsq.storeBuffer: StoreBuffer step numUnissuedAccesses: 0
 534000: system.cpu.execute.lsq: No matching memory response for inst: 0/8.1/18/82.82 pc: 0x101dc (c_mv)
 534500: system.cpu.execute.lsq.storeBuffer: StoreBuffer step numUnissuedAccesses: 0
 534500: system.cpu.execute.lsq: No matching memory response for inst: 0/8.1/18/82.82 pc: 0x101dc (c_mv)
 535000: system.cpu.execute.lsq.storeBuffer: StoreBuffer step numUnissuedAccesses: 0
 535500: system.cpu.execute.lsq.storeBuffer: StoreBuffer step numUnissuedAccesses: 0
 536000: system.cpu.execute.lsq.storeBuffer: StoreBuffer step numUnissuedAccesses: 0
 536500: system.cpu.execute.lsq.storeBuffer: StoreBuffer step numUnissuedAccesses: 0
 537000: system.cpu.execute.lsq.storeBuffer: StoreBuffer step numUnissuedAccesses: 0
 537500: system.cpu.execute.lsq.storeBuffer: StoreBuffer step numUnissuedAccesses: 0
 538000: system.cpu.execute.lsq.storeBuffer: StoreBuffer step numUnissuedAccesses: 0
 538500: system.cpu.execute.lsq.storeBuffer: StoreBuffer step numUnissuedAccesses: 0
 590500: system.cpu.execute.lsq.storeBuffer: StoreBuffer step numUnissuedAccesses: 0
 591000: system.cpu.execute.lsq.storeBuffer: StoreBuffer step numUnissuedAccesses: 0
 591500: system.cpu.execute.lsq.storeBuffer: StoreBuffer step numUnissuedAccesses: 0
 592500: system.cpu.execute.lsq.storeBuffer: StoreBuffer step numUnissuedAccesses: 0
 593000: system.cpu.execute.lsq.storeBuffer: StoreBuffer step numUnissuedAccesses: 0
 593500: system.cpu.execute.lsq.storeBuffer: StoreBuffer step numUnissuedAccesses: 0
 594000: system.cpu.execute.lsq.storeBuffer: StoreBuffer step numUnissuedAccesses: 0
 594000: system.cpu.execute.lsq: No matching memory response for inst: 0/9.1/20/92.92 pc: 0x10354 (c_lui)
 594500: system.cpu.execute.lsq.storeBuffer: StoreBuffer step numUnissuedAccesses: 0
 594500: system.cpu.execute.lsq: No matching memory response for inst: 0/9.1/20/92.92 pc: 0x10354 (c_lui)
 595000: system.cpu.execute.lsq.storeBuffer: StoreBuffer step numUnissuedAccesses: 0
 595500: system.cpu.execute.lsq.storeBuffer: StoreBuffer step numUnissuedAccesses: 0
 595500: system.cpu.execute.lsq: Pushing request (load) addr: 0x11c68 size: 8 flags: 0x0 lineWidth : 0x40
 595500: system.cpu.execute.lsq: Setting state from NotIssued to InTranslation for request: 0/9.1/20/93.93 pc: 0x10356 (ld)
 595500: system.cpu.execute.lsq: Submitting DTLB request
 595500: system.cpu.execute.lsq: Received translation response for request: 0/9.1/20/93.93 pc: 0x10356 (ld)
 595500: system.cpu.execute.lsq: Setting state from InTranslation to Translated for request: 0/9.1/20/93.93 pc: 0x10356 (ld)
 595500: system.cpu.execute.lsq: No forwardable data from store buffer
 595500: system.cpu.execute.lsq: Trying to send request: 0/9.1/20/93.93 pc: 0x10356 (ld) addr: 0x11c68
 595500: system.cpu.execute.lsq: Sent data memory request
 595500: system.cpu.execute.lsq: Setting state from Translated to RequestIssuing for request: 0/9.1/20/93.93 pc: 0x10356 (ld)
 595500: system.cpu.execute.lsq: No matching memory response for inst: 0/9.1/20/93.93 pc: 0x10356 (ld)
 595500: system.cpu.execute.lsq: No matching memory response for inst: 0/9.1/20/93.93 pc: 0x10356 (ld)
 596000: system.cpu.execute.lsq.storeBuffer: StoreBuffer step numUnissuedAccesses: 0
 596000: system.cpu.execute.lsq: No matching memory response for inst: 0/9.1/20/93.93 pc: 0x10356 (ld)
 596000: system.cpu.execute.lsq: No matching memory response for inst: 0/9.1/20/93.93 pc: 0x10356 (ld)
 596500: system.cpu.execute.lsq.storeBuffer: StoreBuffer step numUnissuedAccesses: 0
 596500: system.cpu.execute.lsq: No matching memory response for inst: 0/9.1/20/93.93 pc: 0x10356 (ld)
 596500: system.cpu.execute.lsq: No matching memory response for inst: 0/9.1/20/93.93 pc: 0x10356 (ld)
 597000: system.cpu.execute.lsq.storeBuffer: StoreBuffer step numUnissuedAccesses: 0
 597000: system.cpu.execute.lsq: No matching memory response for inst: 0/9.1/20/93.93 pc: 0x10356 (ld)
 597000: system.cpu.execute.lsq: No matching memory response for inst: 0/9.1/20/93.93 pc: 0x10356 (ld)
 597500: system.cpu.execute.lsq.storeBuffer: StoreBuffer step numUnissuedAccesses: 0
 597500: system.cpu.execute.lsq: No matching memory response for inst: 0/9.1/20/93.93 pc: 0x10356 (ld)
 597500: system.cpu.execute.lsq: No matching memory response for inst: 0/9.1/20/93.93 pc: 0x10356 (ld)
 598000: system.cpu.execute.lsq.storeBuffer: StoreBuffer step numUnissuedAccesses: 0
 598000: system.cpu.execute.lsq: No matching memory response for inst: 0/9.1/20/93.93 pc: 0x10356 (ld)
 598000: system.cpu.execute.lsq: No matching memory response for inst: 0/9.1/20/93.93 pc: 0x10356 (ld)
 598500: system.cpu.execute.lsq.storeBuffer: StoreBuffer step numUnissuedAccesses: 0
 598500: system.cpu.execute.lsq: No matching memory response for inst: 0/9.1/20/93.93 pc: 0x10356 (ld)
 598500: system.cpu.execute.lsq: No matching memory response for inst: 0/9.1/20/93.93 pc: 0x10356 (ld)
 599000: system.cpu.execute.lsq.storeBuffer: StoreBuffer step numUnissuedAccesses: 0
 599000: system.cpu.execute.lsq: No matching memory response for inst: 0/9.1/20/93.93 pc: 0x10356 (ld)
 599000: system.cpu.execute.lsq: No matching memory response for inst: 0/9.1/20/93.93 pc: 0x10356 (ld)
 599500: system.cpu.execute.lsq.storeBuffer: StoreBuffer step numUnissuedAccesses: 0
 599500: system.cpu.execute.lsq: No matching memory response for inst: 0/9.1/20/93.93 pc: 0x10356 (ld)
 599500: system.cpu.execute.lsq: No matching memory response for inst: 0/9.1/20/93.93 pc: 0x10356 (ld)
 600000: system.cpu.execute.lsq.storeBuffer: StoreBuffer step numUnissuedAccesses: 0
 600000: system.cpu.execute.lsq: No matching memory response for inst: 0/9.1/20/93.93 pc: 0x10356 (ld)
 600000: system.cpu.execute.lsq: No matching memory response for inst: 0/9.1/20/93.93 pc: 0x10356 (ld)
 650500: system.cpu.execute.lsq.storeBuffer: StoreBuffer step numUnissuedAccesses: 0
 650500: system.cpu.execute.lsq: No matching memory response for inst: 0/9.1/20/93.93 pc: 0x10356 (ld)
 650500: system.cpu.execute.lsq: No matching memory response for inst: 0/9.1/20/93.93 pc: 0x10356 (ld)
 651000: system.cpu.execute.lsq.storeBuffer: StoreBuffer step numUnissuedAccesses: 0
 651000: system.cpu.execute.lsq: No matching memory response for inst: 0/9.1/20/93.93 pc: 0x10356 (ld)
 651000: system.cpu.execute.lsq: No matching memory response for inst: 0/9.1/20/93.93 pc: 0x10356 (ld)
 651500: system.cpu.execute.lsq.storeBuffer: StoreBuffer step numUnissuedAccesses: 0
 651500: system.cpu.execute.lsq: No matching memory response for inst: 0/9.1/20/93.93 pc: 0x10356 (ld)
 651500: system.cpu.execute.lsq: No matching memory response for inst: 0/9.1/20/93.93 pc: 0x10356 (ld)
 652000: system.cpu.execute.lsq.storeBuffer: StoreBuffer step numUnissuedAccesses: 0
 652000: system.cpu.execute.lsq: No matching memory response for inst: 0/9.1/20/93.93 pc: 0x10356 (ld)
 652000: system.cpu.execute.lsq: No matching memory response for inst: 0/9.1/20/93.93 pc: 0x10356 (ld)
 656000: system.cpu.execute.lsq: Received response packet inst: 0/9.1/20/93.93 pc: 0x10356 (ld) addr: 0x1c68 cmd: ReadResp
 656000: system.cpu.execute.lsq: Retiring packet
 656000: system.cpu.execute.lsq: Setting state from RequestIssuing to Complete for request: 0/9.1/20/93.93 pc: 0x10356 (ld)
 656000: system.cpu.execute.lsq: Has outstanding packets?: 0 1
 656500: system.cpu.execute.lsq.storeBuffer: StoreBuffer step numUnissuedAccesses: 0
 656500: system.cpu.execute.lsq: Found matching memory response for inst: 0/9.1/20/93.93 pc: 0x10356 (ld)
 656500: system.cpu.execute.lsq: Found matching memory response for inst: 0/9.1/20/93.93 pc: 0x10356 (ld)
 656500: system.cpu.execute: Memory response inst: 0/9.1/20/93.93 pc: 0x10356 (ld) addr: 0x1c68 size: 8
 656500: system.cpu.execute: Memory data[0]: 0x20
 656500: system.cpu.execute.lsq: Deleting load request: 0/9.1/20/93.93 pc: 0x10356 (ld)
 656500: system.cpu.execute.lsq: Pushing request (load) addr: 0x11718 size: 8 flags: 0x0 lineWidth : 0x40
 656500: system.cpu.execute.lsq: Setting state from NotIssued to InTranslation for request: 0/9.1/20/95.95 pc: 0x1035c (ld)
 656500: system.cpu.execute.lsq: Submitting DTLB request
 656500: system.cpu.execute.lsq: Received translation response for request: 0/9.1/20/95.95 pc: 0x1035c (ld)
 656500: system.cpu.execute.lsq: Setting state from InTranslation to Translated for request: 0/9.1/20/95.95 pc: 0x1035c (ld)
 656500: system.cpu.execute.lsq: No forwardable data from store buffer
 656500: system.cpu.execute.lsq: Trying to send request: 0/9.1/20/95.95 pc: 0x1035c (ld) addr: 0x11718
 656500: system.cpu.execute.lsq: Sent data memory request
 656500: system.cpu.execute.lsq: Setting state from Translated to RequestIssuing for request: 0/9.1/20/95.95 pc: 0x1035c (ld)
 656500: system.cpu.execute.lsq: No matching memory response for inst: 0/9.1/20/95.95 pc: 0x1035c (ld)
 657000: system.cpu.execute.lsq.storeBuffer: StoreBuffer step numUnissuedAccesses: 0
 657000: system.cpu.execute.lsq: No matching memory response for inst: 0/9.1/20/95.95 pc: 0x1035c (ld)
 657000: system.cpu.execute.lsq: No matching memory response for inst: 0/9.1/20/95.95 pc: 0x1035c (ld)
 708500: system.cpu.execute.lsq.storeBuffer: StoreBuffer step numUnissuedAccesses: 0
 708500: system.cpu.execute.lsq: No matching memory response for inst: 0/9.1/20/95.95 pc: 0x1035c (ld)
 708500: system.cpu.execute.lsq: No matching memory response for inst: 0/9.1/20/95.95 pc: 0x1035c (ld)
 709000: system.cpu.execute.lsq.storeBuffer: StoreBuffer step numUnissuedAccesses: 0
 709000: system.cpu.execute.lsq: No matching memory response for inst: 0/9.1/20/95.95 pc: 0x1035c (ld)
 709000: system.cpu.execute.lsq: No matching memory response for inst: 0/9.1/20/95.95 pc: 0x1035c (ld)
 714000: system.cpu.execute.lsq: Received response packet inst: 0/9.1/20/95.95 pc: 0x1035c (ld) addr: 0x1718 cmd: ReadResp
 714000: system.cpu.execute.lsq: Retiring packet
 714000: system.cpu.execute.lsq: Setting state from RequestIssuing to Complete for request: 0/9.1/20/95.95 pc: 0x1035c (ld)
 714000: system.cpu.execute.lsq: Has outstanding packets?: 0 1
 714500: system.cpu.execute.lsq.storeBuffer: StoreBuffer step numUnissuedAccesses: 0
 714500: system.cpu.execute.lsq: Found matching memory response for inst: 0/9.1/20/95.95 pc: 0x1035c (ld)
 714500: system.cpu.execute.lsq: Found matching memory response for inst: 0/9.1/20/95.95 pc: 0x1035c (ld)
 714500: system.cpu.execute: Memory response inst: 0/9.1/20/95.95 pc: 0x1035c (ld) addr: 0x1718 size: 8
 714500: system.cpu.execute: Memory data[0]: 0x0
 714500: system.cpu.execute.lsq: Deleting load request: 0/9.1/20/95.95 pc: 0x1035c (ld)
 715000: system.cpu.execute.lsq.storeBuffer: StoreBuffer step numUnissuedAccesses: 0
 715000: system.cpu.execute.lsq: Pushing request (store) addr: 0x11718 size: 8 flags: 0x0 lineWidth : 0x40
 715000: system.cpu.execute.lsq: Setting state from NotIssued to InTranslation for request: 0/9.1/20/98.98 pc: 0x10366 (sd)
 715000: system.cpu.execute.lsq: Submitting DTLB request
 715000: system.cpu.execute.lsq: Received translation response for request: 0/9.1/20/98.98 pc: 0x10366 (sd)
 715000: system.cpu.execute.lsq: Setting state from InTranslation to Translated for request: 0/9.1/20/98.98 pc: 0x10366 (sd)
 715000: system.cpu.execute.lsq: Setting state from Translated to StoreToStoreBuffer for request: 0/9.1/20/98.98 pc: 0x10366 (sd)
 715000: system.cpu.execute.lsq: Moving store into transfers queue
 715000: system.cpu.execute.lsq: Found matching memory response for inst: 0/9.1/20/98.98 pc: 0x10366 (sd)
 715000: system.cpu.execute: Memory response inst: 0/9.1/20/98.98 pc: 0x10366 (sd) addr: 0x1718 size: 8
 715000: system.cpu.execute.lsq: Sending store: 0/9.1/20/98.98 pc: 0x10366 (sd) to store buffer
 715000: system.cpu.execute.lsq.storeBuffer: Pushing store: 0x508bb00 into store buffer
 715000: system.cpu.execute.lsq: Setting state from StoreToStoreBuffer to StoreInStoreBuffer for request: 0/9.1/20/98.98 pc: 0x10366 (sd)
 715500: system.cpu.execute.lsq.storeBuffer: StoreBuffer step numUnissuedAccesses: 1
 715500: system.cpu.execute.lsq.storeBuffer: Considering request: 0/9.1/20/98.98 pc: 0x10366 (sd), sentAllPackets: 0 state: StoreInStoreBuffer
 715500: system.cpu.execute.lsq.storeBuffer: Trying to send request: 0/9.1/20/98.98 pc: 0x10366 (sd) to memory system
 715500: system.cpu.execute.lsq: Trying to send request: 0/9.1/20/98.98 pc: 0x10366 (sd) addr: 0x11718
 715500: system.cpu.execute.lsq: Sent data memory request
 715500: system.cpu.execute.lsq: Setting state from StoreInStoreBuffer to StoreBufferIssuing for request: 0/9.1/20/98.98 pc: 0x10366 (sd)
 715500: system.cpu.execute.lsq: Pushing request (load) addr: 0x11728 size: 4 flags: 0x0 lineWidth : 0x40
 715500: system.cpu.execute.lsq: Setting state from NotIssued to InTranslation for request: 0/9.1/20/99.99 pc: 0x1036a (c_lw)
 715500: system.cpu.execute.lsq: Submitting DTLB request
 715500: system.cpu.execute.lsq: Received translation response for request: 0/9.1/20/99.99 pc: 0x1036a (c_lw)
 715500: system.cpu.execute.lsq: Setting state from InTranslation to Translated for request: 0/9.1/20/99.99 pc: 0x1036a (c_lw)
 715500: system.cpu.execute.lsq: No forwardable data from store buffer
 715500: system.cpu.execute.lsq: Trying to send request: 0/9.1/20/99.99 pc: 0x1036a (c_lw) addr: 0x11728
 715500: system.cpu.execute.lsq: Sent data memory request
 715500: system.cpu.execute.lsq: Setting state from Translated to RequestIssuing for request: 0/9.1/20/99.99 pc: 0x1036a (c_lw)
 715500: system.cpu.execute.lsq: No matching memory response for inst: 0/9.1/20/99.99 pc: 0x1036a (c_lw)
 715500: system.cpu.execute.lsq: No matching memory response for inst: 0/9.1/20/99.99 pc: 0x1036a (c_lw)
 716000: system.cpu.execute.lsq.storeBuffer: StoreBuffer step numUnissuedAccesses: 0
 716000: system.cpu.execute.lsq: No matching memory response for inst: 0/9.1/20/99.99 pc: 0x1036a (c_lw)
 716000: system.cpu.execute.lsq: No matching memory response for inst: 0/9.1/20/99.99 pc: 0x1036a (c_lw)
 716500: system.cpu.execute.lsq.storeBuffer: StoreBuffer step numUnissuedAccesses: 0
 716500: system.cpu.execute.lsq: No matching memory response for inst: 0/9.1/20/99.99 pc: 0x1036a (c_lw)
 716500: system.cpu.execute.lsq: No matching memory response for inst: 0/9.1/20/99.99 pc: 0x1036a (c_lw)
 717000: system.cpu.execute.lsq.storeBuffer: StoreBuffer step numUnissuedAccesses: 0
 717000: system.cpu.execute.lsq: No matching memory response for inst: 0/9.1/20/99.99 pc: 0x1036a (c_lw)
 717000: system.cpu.execute.lsq: No matching memory response for inst: 0/9.1/20/99.99 pc: 0x1036a (c_lw)
 717500: system.cpu.execute.lsq.storeBuffer: StoreBuffer step numUnissuedAccesses: 0
 717500: system.cpu.execute.lsq: No matching memory response for inst: 0/9.1/20/99.99 pc: 0x1036a (c_lw)
 717500: system.cpu.execute.lsq: No matching memory response for inst: 0/9.1/20/99.99 pc: 0x1036a (c_lw)
 718000: system.cpu.execute.lsq.storeBuffer: StoreBuffer step numUnissuedAccesses: 0
 718000: system.cpu.execute.lsq: No matching memory response for inst: 0/9.1/20/99.99 pc: 0x1036a (c_lw)
 718000: system.cpu.execute.lsq: No matching memory response for inst: 0/9.1/20/99.99 pc: 0x1036a (c_lw)
 718500: system.cpu.execute.lsq.storeBuffer: StoreBuffer step numUnissuedAccesses: 0
 718500: system.cpu.execute.lsq: No matching memory response for inst: 0/9.1/20/99.99 pc: 0x1036a (c_lw)
 718500: system.cpu.execute.lsq: No matching memory response for inst: 0/9.1/20/99.99 pc: 0x1036a (c_lw)
 719000: system.cpu.execute.lsq: Received response packet inst: 0/9.1/20/98.98 pc: 0x10366 (sd) addr: 0x1718 cmd: WriteResp
 719000: system.cpu.execute.lsq: Retiring packet
 719000: system.cpu.execute.lsq: Setting state from StoreBufferIssuing to Complete for request: 0/9.1/20/98.98 pc: 0x10366 (sd)
 719000: system.cpu.execute.lsq.storeBuffer: Deleting request: 0x508bb00 0x508bb00 0/9.1/20/98.98 pc: 0x10366 (sd) from StoreBuffer
 719001: system.cpu.execute.lsq: Received response packet inst: 0/9.1/20/99.99 pc: 0x1036a (c_lw) addr: 0x1728 cmd: ReadResp
 719001: system.cpu.execute.lsq: Retiring packet
 719001: system.cpu.execute.lsq: Setting state from RequestIssuing to Complete for request: 0/9.1/20/99.99 pc: 0x1036a (c_lw)
 719001: system.cpu.execute.lsq: Has outstanding packets?: 0 1
 719500: system.cpu.execute.lsq.storeBuffer: StoreBuffer step numUnissuedAccesses: 0
 719500: system.cpu.execute.lsq: Found matching memory response for inst: 0/9.1/20/99.99 pc: 0x1036a (c_lw)
 719500: system.cpu.execute.lsq: Found matching memory response for inst: 0/9.1/20/99.99 pc: 0x1036a (c_lw)
 719500: system.cpu.execute: Memory response inst: 0/9.1/20/99.99 pc: 0x1036a (c_lw) addr: 0x1728 size: 4
 719500: system.cpu.execute: Memory data[0]: 0x0
 719500: system.cpu.execute.lsq: Deleting load request: 0/9.1/20/99.99 pc: 0x1036a (c_lw)
 720000: system.cpu.execute.lsq.storeBuffer: StoreBuffer step numUnissuedAccesses: 0
 720500: system.cpu.execute.lsq.storeBuffer: StoreBuffer step numUnissuedAccesses: 0
 721000: system.cpu.execute.lsq.storeBuffer: StoreBuffer step numUnissuedAccesses: 0
 721500: system.cpu.execute.lsq.storeBuffer: StoreBuffer step numUnissuedAccesses: 0
 722000: system.cpu.execute.lsq.storeBuffer: StoreBuffer step numUnissuedAccesses: 0
 722500: system.cpu.execute.lsq.storeBuffer: StoreBuffer step numUnissuedAccesses: 0
 723000: system.cpu.execute.lsq.storeBuffer: StoreBuffer step numUnissuedAccesses: 0
 723500: system.cpu.execute.lsq.storeBuffer: StoreBuffer step numUnissuedAccesses: 0
 723500: system.cpu.execute.lsq: No matching memory response for inst: 0/10.1/23/118.118 pc: 0x103a8 (addiw)
 724000: system.cpu.execute.lsq.storeBuffer: StoreBuffer step numUnissuedAccesses: 0
 724000: system.cpu.execute.lsq: No matching memory response for inst: 0/10.1/23/118.118 pc: 0x103a8 (addiw)
 724500: system.cpu.execute.lsq.storeBuffer: StoreBuffer step numUnissuedAccesses: 0
 725000: system.cpu.execute.lsq.storeBuffer: StoreBuffer step numUnissuedAccesses: 0
 725500: system.cpu.execute.lsq.storeBuffer: StoreBuffer step numUnissuedAccesses: 0
 725500: system.cpu.execute.lsq: Pushing request (store) addr: 0x11728 size: 4 flags: 0x0 lineWidth : 0x40
 725500: system.cpu.execute.lsq: Setting state from NotIssued to InTranslation for request: 0/10.1/23/121.121 pc: 0x103b0 (c_sw)
 725500: system.cpu.execute.lsq: Submitting DTLB request
 725500: system.cpu.execute.lsq: Received translation response for request: 0/10.1/23/121.121 pc: 0x103b0 (c_sw)
 725500: system.cpu.execute.lsq: Setting state from InTranslation to Translated for request: 0/10.1/23/121.121 pc: 0x103b0 (c_sw)
 725500: system.cpu.execute.lsq: Setting state from Translated to StoreToStoreBuffer for request: 0/10.1/23/121.121 pc: 0x103b0 (c_sw)
 725500: system.cpu.execute.lsq: Moving store into transfers queue
 726000: system.cpu.execute.lsq.storeBuffer: StoreBuffer step numUnissuedAccesses: 0
 726000: system.cpu.execute.lsq: Found matching memory response for inst: 0/10.1/23/121.121 pc: 0x103b0 (c_sw)
 726000: system.cpu.execute: Memory response inst: 0/10.1/23/121.121 pc: 0x103b0 (c_sw) addr: 0x1728 size: 4
 726000: system.cpu.execute.lsq: Sending store: 0/10.1/23/121.121 pc: 0x103b0 (c_sw) to store buffer
 726000: system.cpu.execute.lsq.storeBuffer: Pushing store: 0x508ba00 into store buffer
 726000: system.cpu.execute.lsq: Setting state from StoreToStoreBuffer to StoreInStoreBuffer for request: 0/10.1/23/121.121 pc: 0x103b0 (c_sw)
 726000: system.cpu.execute.lsq: No matching memory response for inst: 0/10.1/23/122.122 pc: 0x103b2 (c_add)
 726500: system.cpu.execute.lsq.storeBuffer: StoreBuffer step numUnissuedAccesses: 1
 726500: system.cpu.execute.lsq.storeBuffer: Considering request: 0/10.1/23/121.121 pc: 0x103b0 (c_sw), sentAllPackets: 0 state: StoreInStoreBuffer
 726500: system.cpu.execute.lsq.storeBuffer: Trying to send request: 0/10.1/23/121.121 pc: 0x103b0 (c_sw) to memory system
 726500: system.cpu.execute.lsq: Trying to send request: 0/10.1/23/121.121 pc: 0x103b0 (c_sw) addr: 0x11728
 726500: system.cpu.execute.lsq: Sent data memory request
 726500: system.cpu.execute.lsq: Setting state from StoreInStoreBuffer to StoreBufferIssuing for request: 0/10.1/23/121.121 pc: 0x103b0 (c_sw)
 727000: system.cpu.execute.lsq.storeBuffer: StoreBuffer step numUnissuedAccesses: 0
 727000: system.cpu.execute.lsq: Pushing request (store) addr: 0x11730 size: 8 flags: 0x0 lineWidth : 0x40
 727000: system.cpu.execute.lsq: Setting state from NotIssued to InTranslation for request: 0/10.1/23/123.123 pc: 0x103b4 (c_sd)
 727000: system.cpu.execute.lsq: Submitting DTLB request
 727000: system.cpu.execute.lsq: Received translation response for request: 0/10.1/23/123.123 pc: 0x103b4 (c_sd)
 727000: system.cpu.execute.lsq: Setting state from InTranslation to Translated for request: 0/10.1/23/123.123 pc: 0x103b4 (c_sd)
 727000: system.cpu.execute.lsq: Setting state from Translated to StoreToStoreBuffer for request: 0/10.1/23/123.123 pc: 0x103b4 (c_sd)
 727000: system.cpu.execute.lsq: Moving store into transfers queue
 727000: system.cpu.execute.lsq: Found matching memory response for inst: 0/10.1/23/123.123 pc: 0x103b4 (c_sd)
 727000: system.cpu.execute: Memory response inst: 0/10.1/23/123.123 pc: 0x103b4 (c_sd) addr: 0x1730 size: 8
 727000: system.cpu.execute.lsq: Sending store: 0/10.1/23/123.123 pc: 0x103b4 (c_sd) to store buffer
 727000: system.cpu.execute.lsq.storeBuffer: Pushing store: 0x508bb00 into store buffer
 727000: system.cpu.execute.lsq: Setting state from StoreToStoreBuffer to StoreInStoreBuffer for request: 0/10.1/23/123.123 pc: 0x103b4 (c_sd)
 727000: system.cpu.execute.lsq: No matching memory response for inst: 0/10.1/23/124.124 pc: 0x103b6 (c_li)
 727500: system.cpu.execute.lsq: Received response packet inst: 0/10.1/23/121.121 pc: 0x103b0 (c_sw) addr: 0x1728 cmd: WriteResp
 727500: system.cpu.execute.lsq: Retiring packet
 727500: system.cpu.execute.lsq: Setting state from StoreBufferIssuing to Complete for request: 0/10.1/23/121.121 pc: 0x103b0 (c_sw)
 727500: system.cpu.execute.lsq.storeBuffer: Deleting request: 0x508ba00 0x508ba00 0/10.1/23/121.121 pc: 0x103b0 (c_sw) from StoreBuffer
 727500: system.cpu.execute.lsq.storeBuffer: StoreBuffer step numUnissuedAccesses: 1
 727500: system.cpu.execute.lsq.storeBuffer: Considering request: 0/10.1/23/123.123 pc: 0x103b4 (c_sd), sentAllPackets: 0 state: StoreInStoreBuffer
 727500: system.cpu.execute.lsq.storeBuffer: Trying to send request: 0/10.1/23/123.123 pc: 0x103b4 (c_sd) to memory system
 727500: system.cpu.execute.lsq: Trying to send request: 0/10.1/23/123.123 pc: 0x103b4 (c_sd) addr: 0x11730
 727500: system.cpu.execute.lsq: Sent data memory request
 727500: system.cpu.execute.lsq: Setting state from StoreInStoreBuffer to StoreBufferIssuing for request: 0/10.1/23/123.123 pc: 0x103b4 (c_sd)
 727500: system.cpu.execute.lsq: No matching memory response for inst: 0/10.1/23/124.124 pc: 0x103b6 (c_li)
 728000: system.cpu.execute.lsq.storeBuffer: StoreBuffer step numUnissuedAccesses: 0
 728500: system.cpu.execute.lsq: Received response packet inst: 0/10.1/23/123.123 pc: 0x103b4 (c_sd) addr: 0x1730 cmd: WriteResp
 728500: system.cpu.execute.lsq: Retiring packet
 728500: system.cpu.execute.lsq: Setting state from StoreBufferIssuing to Complete for request: 0/10.1/23/123.123 pc: 0x103b4 (c_sd)
 728500: system.cpu.execute.lsq.storeBuffer: Deleting request: 0x508bb00 0x508bb00 0/10.1/23/123.123 pc: 0x103b4 (c_sd) from StoreBuffer
 728500: system.cpu.execute.lsq.storeBuffer: StoreBuffer step numUnissuedAccesses: 0
 729000: system.cpu.execute.lsq.storeBuffer: StoreBuffer step numUnissuedAccesses: 0
 729500: system.cpu.execute.lsq.storeBuffer: StoreBuffer step numUnissuedAccesses: 0
 730000: system.cpu.execute.lsq.storeBuffer: StoreBuffer step numUnissuedAccesses: 0
 785500: system.cpu.execute.lsq.storeBuffer: StoreBuffer step numUnissuedAccesses: 0
 786000: system.cpu.execute.lsq.storeBuffer: StoreBuffer step numUnissuedAccesses: 0
 786500: system.cpu.execute.lsq.storeBuffer: StoreBuffer step numUnissuedAccesses: 0
 787500: system.cpu.execute.lsq.storeBuffer: StoreBuffer step numUnissuedAccesses: 0
 788000: system.cpu.execute.lsq.storeBuffer: StoreBuffer step numUnissuedAccesses: 0
 788500: system.cpu.execute.lsq.storeBuffer: StoreBuffer step numUnissuedAccesses: 0
 789000: system.cpu.execute.lsq.storeBuffer: StoreBuffer step numUnissuedAccesses: 0
 789000: system.cpu.execute.lsq: No matching memory response for inst: 0/11.1/26/132.132 pc: 0x10114 (jal)
 789500: system.cpu.execute.lsq.storeBuffer: StoreBuffer step numUnissuedAccesses: 0
 789500: system.cpu.execute.lsq: No matching memory response for inst: 0/11.1/26/132.132 pc: 0x10114 (jal)
 790000: system.cpu.execute.lsq.storeBuffer: StoreBuffer step numUnissuedAccesses: 0
 790000: system.cpu.execute.lsq: Pushing request (load) addr: 0x7fffffffffffff40 size: 4 flags: 0x0 lineWidth : 0x40
 790000: system.cpu.execute.lsq: Setting state from NotIssued to InTranslation for request: 0/11.1/26/133.133 pc: 0x10118 (c_lwsp)
 790000: system.cpu.execute.lsq: Submitting DTLB request
 790000: system.cpu.execute.lsq: Received translation response for request: 0/11.1/26/133.133 pc: 0x10118 (c_lwsp)
 790000: system.cpu.execute.lsq: Setting state from InTranslation to Translated for request: 0/11.1/26/133.133 pc: 0x10118 (c_lwsp)
 790000: system.cpu.execute.lsq: No forwardable data from store buffer
 790000: system.cpu.execute.lsq: Trying to send request: 0/11.1/26/133.133 pc: 0x10118 (c_lwsp) addr: 0x7fffffffffffff40
 790000: system.cpu.execute.lsq: Sent data memory request
 790000: system.cpu.execute.lsq: Setting state from Translated to RequestIssuing for request: 0/11.1/26/133.133 pc: 0x10118 (c_lwsp)
 790500: system.cpu.execute.lsq.storeBuffer: StoreBuffer step numUnissuedAccesses: 0
 790500: system.cpu.execute.lsq: No matching memory response for inst: 0/11.1/26/133.133 pc: 0x10118 (c_lwsp)
 791000: system.cpu.execute.lsq: Received response packet inst: 0/11.1/26/133.133 pc: 0x10118 (c_lwsp) addr: 0x2f40 cmd: ReadResp
 791000: system.cpu.execute.lsq: Retiring packet
 791000: system.cpu.execute.lsq: Setting state from RequestIssuing to Complete for request: 0/11.1/26/133.133 pc: 0x10118 (c_lwsp)
 791000: system.cpu.execute.lsq: Has outstanding packets?: 0 1
 791000: system.cpu.execute.lsq.storeBuffer: StoreBuffer step numUnissuedAccesses: 0
 791000: system.cpu.execute.lsq: Found matching memory response for inst: 0/11.1/26/133.133 pc: 0x10118 (c_lwsp)
 791000: system.cpu.execute.lsq: Found matching memory response for inst: 0/11.1/26/133.133 pc: 0x10118 (c_lwsp)
 791000: system.cpu.execute.lsq: Deleting load request: 0/11.1/26/133.133 pc: 0x10118 (c_lwsp)
 791500: system.cpu.execute.lsq.storeBuffer: StoreBuffer step numUnissuedAccesses: 0
 848500: system.cpu.execute.lsq.storeBuffer: StoreBuffer step numUnissuedAccesses: 0
 849000: system.cpu.execute.lsq.storeBuffer: StoreBuffer step numUnissuedAccesses: 0
 849500: system.cpu.execute.lsq.storeBuffer: StoreBuffer step numUnissuedAccesses: 0
 850000: system.cpu.execute.lsq.storeBuffer: StoreBuffer step numUnissuedAccesses: 0
 850000: system.cpu.execute.lsq: No matching memory response for inst: 0/12.1/28/138.138 pc: 0x10240 (c_addi)
 850500: system.cpu.execute.lsq.storeBuffer: StoreBuffer step numUnissuedAccesses: 0
 850500: system.cpu.execute.lsq: No matching memory response for inst: 0/12.1/28/138.138 pc: 0x10240 (c_addi)
 851000: system.cpu.execute.lsq.storeBuffer: StoreBuffer step numUnissuedAccesses: 0
 851500: system.cpu.execute.lsq.storeBuffer: StoreBuffer step numUnissuedAccesses: 0
 851500: system.cpu.execute.lsq: Pushing request (store) addr: 0x7fffffffffffff30 size: 8 flags: 0x0 lineWidth : 0x40
 851500: system.cpu.execute.lsq: Setting state from NotIssued to InTranslation for request: 0/12.1/28/140.140 pc: 0x10244 (c_sdsp)
 851500: system.cpu.execute.lsq: Submitting DTLB request
 851500: system.cpu.execute.lsq: Received translation response for request: 0/12.1/28/140.140 pc: 0x10244 (c_sdsp)
 851500: system.cpu.execute.lsq: Setting state from InTranslation to Translated for request: 0/12.1/28/140.140 pc: 0x10244 (c_sdsp)
 851500: system.cpu.execute.lsq: Setting state from Translated to StoreToStoreBuffer for request: 0/12.1/28/140.140 pc: 0x10244 (c_sdsp)
 851500: system.cpu.execute.lsq: Moving store into transfers queue
 852000: system.cpu.execute.lsq.storeBuffer: StoreBuffer step numUnissuedAccesses: 0
 852000: system.cpu.execute.lsq: Found matching memory response for inst: 0/12.1/28/140.140 pc: 0x10244 (c_sdsp)
 852000: system.cpu.execute: Memory response inst: 0/12.1/28/140.140 pc: 0x10244 (c_sdsp) addr: 0x2f30 size: 8
 852000: system.cpu.execute.lsq: Sending store: 0/12.1/28/140.140 pc: 0x10244 (c_sdsp) to store buffer
[...]
1470500: system.cpu.execute.lsq: Found matching memory response for inst: 0/42.3/110/515.515 pc: 0x103f4 (c_ldsp)
1470500: system.cpu.execute: Memory response inst: 0/42.3/110/515.515 pc: 0x103f4 (c_ldsp) addr: 0x2f10 size: 8
1470500: system.cpu.execute: Memory data[0]: 0x0
1470500: system.cpu.execute.lsq: Deleting load request: 0/42.3/110/515.515 pc: 0x103f4 (c_ldsp)
1470500: system.cpu.execute.lsq: No matching memory response for inst: 0/42.3/110/516.516 pc: 0x103f6 (c_ldsp)
1470500: system.cpu.execute.lsq: Pushing request (load) addr: 0x7fffffffffffff00 size: 8 flags: 0x0 lineWidth : 0x40
1470500: system.cpu.execute.lsq: Setting state from NotIssued to InTranslation for request: 0/42.3/110/517.517 pc: 0x103f8 (c_ldsp)
1470500: system.cpu.execute.lsq: Submitting DTLB request
1470500: system.cpu.execute.lsq: Received translation response for request: 0/42.3/110/517.517 pc: 0x103f8 (c_ldsp)
1470500: system.cpu.execute.lsq: Setting state from InTranslation to Translated for request: 0/42.3/110/517.517 pc: 0x103f8 (c_ldsp)
1470500: system.cpu.execute.lsq: No forwardable data from store buffer
1470500: system.cpu.execute.lsq: Trying to send request: 0/42.3/110/517.517 pc: 0x103f8 (c_ldsp) addr: 0x7fffffffffffff00
1470500: system.cpu.execute.lsq: Sent data memory request
1470500: system.cpu.execute.lsq: Setting state from Translated to RequestIssuing for request: 0/42.3/110/517.517 pc: 0x103f8 (c_ldsp)
1470500: system.cpu.execute.lsq: No matching memory response for inst: 0/42.3/110/516.516 pc: 0x103f6 (c_ldsp)
1470500: system.cpu.execute.lsq: No matching memory response for inst: 0/42.3/110/516.516 pc: 0x103f6 (c_ldsp)
1471000: system.cpu.execute.lsq: Received response packet inst: 0/42.3/110/516.516 pc: 0x103f6 (c_ldsp) addr: 0x2f08 cmd: ReadResp
1471000: system.cpu.execute.lsq: Retiring packet
1471000: system.cpu.execute.lsq: Setting state from RequestIssuing to Complete for request: 0/42.3/110/516.516 pc: 0x103f6 (c_ldsp)
1471000: system.cpu.execute.lsq: Has outstanding packets?: 0 1
1471000: system.cpu.execute.lsq.storeBuffer: StoreBuffer step numUnissuedAccesses: 0
1471000: system.cpu.execute.lsq: Found matching memory response for inst: 0/42.3/110/516.516 pc: 0x103f6 (c_ldsp)
1471000: system.cpu.execute.lsq: Found matching memory response for inst: 0/42.3/110/516.516 pc: 0x103f6 (c_ldsp)
1471000: system.cpu.execute: Memory response inst: 0/42.3/110/516.516 pc: 0x103f6 (c_ldsp) addr: 0x2f08 size: 8
1471000: system.cpu.execute: Memory data[0]: 0x0
1471000: system.cpu.execute.lsq: Deleting load request: 0/42.3/110/516.516 pc: 0x103f6 (c_ldsp)
1471000: system.cpu.execute.lsq: No matching memory response for inst: 0/42.3/110/517.517 pc: 0x103f8 (c_ldsp)
1471000: system.cpu.execute.lsq: Pushing request (load) addr: 0x7ffffffffffffef8 size: 8 flags: 0x0 lineWidth : 0x40
1471000: system.cpu.execute.lsq: Setting state from NotIssued to InTranslation for request: 0/42.3/110/518.518 pc: 0x103fa (c_ldsp)
1471000: system.cpu.execute.lsq: Submitting DTLB request
1471000: system.cpu.execute.lsq: Received translation response for request: 0/42.3/110/518.518 pc: 0x103fa (c_ldsp)
1471000: system.cpu.execute.lsq: Setting state from InTranslation to Translated for request: 0/42.3/110/518.518 pc: 0x103fa (c_ldsp)
1471000: system.cpu.execute.lsq: No forwardable data from store buffer
1471000: system.cpu.execute.lsq: Trying to send request: 0/42.3/110/518.518 pc: 0x103fa (c_ldsp) addr: 0x7ffffffffffffef8
1471000: system.cpu.execute.lsq: Sent data memory request
1471000: system.cpu.execute.lsq: Setting state from Translated to RequestIssuing for request: 0/42.3/110/518.518 pc: 0x103fa (c_ldsp)
1471000: system.cpu.execute.lsq: No matching memory response for inst: 0/42.3/110/517.517 pc: 0x103f8 (c_ldsp)
1471000: system.cpu.execute.lsq: No matching memory response for inst: 0/42.3/110/517.517 pc: 0x103f8 (c_ldsp)
1471500: system.cpu.execute.lsq: Received response packet inst: 0/42.3/110/517.517 pc: 0x103f8 (c_ldsp) addr: 0x2f00 cmd: ReadResp
1471500: system.cpu.execute.lsq: Retiring packet
1471500: system.cpu.execute.lsq: Setting state from RequestIssuing to Complete for request: 0/42.3/110/517.517 pc: 0x103f8 (c_ldsp)
1471500: system.cpu.execute.lsq: Has outstanding packets?: 0 1
1471500: system.cpu.execute.lsq.storeBuffer: StoreBuffer step numUnissuedAccesses: 0
1471500: system.cpu.execute.lsq: Found matching memory response for inst: 0/42.3/110/517.517 pc: 0x103f8 (c_ldsp)
1471500: system.cpu.execute.lsq: Found matching memory response for inst: 0/42.3/110/517.517 pc: 0x103f8 (c_ldsp)
1471500: system.cpu.execute: Memory response inst: 0/42.3/110/517.517 pc: 0x103f8 (c_ldsp) addr: 0x2f00 size: 8
1471500: system.cpu.execute: Memory data[0]: 0x0
1471500: system.cpu.execute.lsq: Deleting load request: 0/42.3/110/517.517 pc: 0x103f8 (c_ldsp)
1471500: system.cpu.execute.lsq: No matching memory response for inst: 0/42.3/110/518.518 pc: 0x103fa (c_ldsp)
1471500: system.cpu.execute.lsq: Pushing request (load) addr: 0x7ffffffffffffef0 size: 8 flags: 0x0 lineWidth : 0x40
1471500: system.cpu.execute.lsq: Setting state from NotIssued to InTranslation for request: 0/42.3/110/519.519 pc: 0x103fc (c_ldsp)
1471500: system.cpu.execute.lsq: Submitting DTLB request
1471500: system.cpu.execute.lsq: Received translation response for request: 0/42.3/110/519.519 pc: 0x103fc (c_ldsp)
1471500: system.cpu.execute.lsq: Setting state from InTranslation to Translated for request: 0/42.3/110/519.519 pc: 0x103fc (c_ldsp)
1471500: system.cpu.execute.lsq: No forwardable data from store buffer
1471500: system.cpu.execute.lsq: Trying to send request: 0/42.3/110/519.519 pc: 0x103fc (c_ldsp) addr: 0x7ffffffffffffef0
1471500: system.cpu.execute.lsq: Sent data memory request
1471500: system.cpu.execute.lsq: Setting state from Translated to RequestIssuing for request: 0/42.3/110/519.519 pc: 0x103fc (c_ldsp)
1471500: system.cpu.execute.lsq: No matching memory response for inst: 0/42.3/110/518.518 pc: 0x103fa (c_ldsp)
1471500: system.cpu.execute.lsq: No matching memory response for inst: 0/42.3/110/518.518 pc: 0x103fa (c_ldsp)
1472000: system.cpu.execute.lsq: Received response packet inst: 0/42.3/110/518.518 pc: 0x103fa (c_ldsp) addr: 0x2ef8 cmd: ReadResp
1472000: system.cpu.execute.lsq: Retiring packet
1472000: system.cpu.execute.lsq: Setting state from RequestIssuing to Complete for request: 0/42.3/110/518.518 pc: 0x103fa (c_ldsp)
1472000: system.cpu.execute.lsq: Has outstanding packets?: 0 1
1472000: system.cpu.execute.lsq.storeBuffer: StoreBuffer step numUnissuedAccesses: 0
1472000: system.cpu.execute.lsq: Found matching memory response for inst: 0/42.3/110/518.518 pc: 0x103fa (c_ldsp)
1472000: system.cpu.execute.lsq: Found matching memory response for inst: 0/42.3/110/518.518 pc: 0x103fa (c_ldsp)
1472000: system.cpu.execute: Memory response inst: 0/42.3/110/518.518 pc: 0x103fa (c_ldsp) addr: 0x2ef8 size: 8
1472000: system.cpu.execute: Memory data[0]: 0x0
1472000: system.cpu.execute.lsq: Deleting load request: 0/42.3/110/518.518 pc: 0x103fa (c_ldsp)
1472000: system.cpu.execute.lsq: No matching memory response for inst: 0/42.3/110/519.519 pc: 0x103fc (c_ldsp)
1472000: system.cpu.execute.lsq: Pushing request (load) addr: 0x7ffffffffffffee8 size: 8 flags: 0x0 lineWidth : 0x40
1472000: system.cpu.execute.lsq: Setting state from NotIssued to InTranslation for request: 0/42.3/110/520.520 pc: 0x103fe (c_ldsp)
1472000: system.cpu.execute.lsq: Submitting DTLB request
1472000: system.cpu.execute.lsq: Received translation response for request: 0/42.3/110/520.520 pc: 0x103fe (c_ldsp)
1472000: system.cpu.execute.lsq: Setting state from InTranslation to Translated for request: 0/42.3/110/520.520 pc: 0x103fe (c_ldsp)
1472000: system.cpu.execute.lsq: No forwardable data from store buffer
1472000: system.cpu.execute.lsq: Trying to send request: 0/42.3/110/520.520 pc: 0x103fe (c_ldsp) addr: 0x7ffffffffffffee8
1472000: system.cpu.execute.lsq: Sent data memory request
1472000: system.cpu.execute.lsq: Setting state from Translated to RequestIssuing for request: 0/42.3/110/520.520 pc: 0x103fe (c_ldsp)
1472000: system.cpu.execute.lsq: No matching memory response for inst: 0/42.3/110/519.519 pc: 0x103fc (c_ldsp)
1472000: system.cpu.execute.lsq: No matching memory response for inst: 0/42.3/110/519.519 pc: 0x103fc (c_ldsp)
1472500: system.cpu.execute.lsq: Received response packet inst: 0/42.3/110/519.519 pc: 0x103fc (c_ldsp) addr: 0x2ef0 cmd: ReadResp
1472500: system.cpu.execute.lsq: Retiring packet
1472500: system.cpu.execute.lsq: Setting state from RequestIssuing to Complete for request: 0/42.3/110/519.519 pc: 0x103fc (c_ldsp)
1472500: system.cpu.execute.lsq: Has outstanding packets?: 0 1
1472500: system.cpu.execute.lsq.storeBuffer: StoreBuffer step numUnissuedAccesses: 0
1472500: system.cpu.execute.lsq: Found matching memory response for inst: 0/42.3/110/519.519 pc: 0x103fc (c_ldsp)
1472500: system.cpu.execute.lsq: Found matching memory response for inst: 0/42.3/110/519.519 pc: 0x103fc (c_ldsp)
1472500: system.cpu.execute: Memory response inst: 0/42.3/110/519.519 pc: 0x103fc (c_ldsp) addr: 0x2ef0 size: 8
1472500: system.cpu.execute: Memory data[0]: 0x0
1472500: system.cpu.execute.lsq: Deleting load request: 0/42.3/110/519.519 pc: 0x103fc (c_ldsp)
1472500: system.cpu.execute.lsq: No matching memory response for inst: 0/42.3/110/520.520 pc: 0x103fe (c_ldsp)
1472500: system.cpu.execute.lsq: No matching memory response for inst: 0/42.3/110/520.520 pc: 0x103fe (c_ldsp)
1473000: system.cpu.execute.lsq: Received response packet inst: 0/42.3/110/520.520 pc: 0x103fe (c_ldsp) addr: 0x2ee8 cmd: ReadResp
1473000: system.cpu.execute.lsq: Retiring packet
1473000: system.cpu.execute.lsq: Setting state from RequestIssuing to Complete for request: 0/42.3/110/520.520 pc: 0x103fe (c_ldsp)
1473000: system.cpu.execute.lsq: Has outstanding packets?: 0 1
1473000: system.cpu.execute.lsq.storeBuffer: StoreBuffer step numUnissuedAccesses: 0
1473000: system.cpu.execute.lsq: Found matching memory response for inst: 0/42.3/110/520.520 pc: 0x103fe (c_ldsp)
1473000: system.cpu.execute.lsq: Found matching memory response for inst: 0/42.3/110/520.520 pc: 0x103fe (c_ldsp)
1473000: system.cpu.execute: Memory response inst: 0/42.3/110/520.520 pc: 0x103fe (c_ldsp) addr: 0x2ee8 size: 8
1473000: system.cpu.execute: Memory data[0]: 0x0
1473000: system.cpu.execute.lsq: Deleting load request: 0/42.3/110/520.520 pc: 0x103fe (c_ldsp)
1473500: system.cpu.execute.lsq.storeBuffer: StoreBuffer step numUnissuedAccesses: 0
1474000: system.cpu.execute.lsq.storeBuffer: StoreBuffer step numUnissuedAccesses: 0
1474000: system.cpu.execute.lsq: Pushing request (load) addr: 0x208 size: 8 flags: 0x0 lineWidth : 0x40
1474000: system.cpu.execute.lsq: Setting state from NotIssued to InTranslation for request: 0/42.3/111/524.524 pc: 0x10408 (ld)
1474000: system.cpu.execute.lsq: Submitting DTLB request
1474000: system.cpu.execute.lsq: Received translation response for request: 0/42.3/111/524.524 pc: 0x10408 (ld)
1474000: system.cpu.execute.lsq: Setting state from InTranslation to Translated for request: 0/42.3/111/524.524 pc: 0x10408 (ld)
1474000: system.cpu.execute.lsq: Moving faulting request into the transfers queue
1474000: system.cpu.execute.lsq: Setting state from Translated to Complete for request: 0/42.3/111/524.524 pc: 0x10408 (ld)
1474500: system.cpu.execute.lsq.storeBuffer: StoreBuffer step numUnissuedAccesses: 0
1474500: system.cpu.execute.lsq: Found matching memory response for inst: 0/42.3/111/524.524 pc: 0x10408 (ld)
1474500: system.cpu.execute.lsq: Deleting load request: 0/42.3/111/524.524 pc: 0x10408 (ld)
1475000: system.cpu.execute.lsq.storeBuffer: StoreBuffer step numUnissuedAccesses: 0
1476000: system.cpu.execute.lsq.storeBuffer: StoreBuffer step numUnissuedAccesses: 0
1476500: system.cpu.execute.lsq.storeBuffer: StoreBuffer step numUnissuedAccesses: 0
1477000: system.cpu.execute.lsq.storeBuffer: StoreBuffer step numUnissuedAccesses: 0
1477500: system.cpu.execute.lsq.storeBuffer: StoreBuffer step numUnissuedAccesses: 0
1477500: system.cpu.execute.lsq: No matching memory response for inst: 0/43.3/113/528.528 pc: 0x101f6 (c_lui)
1478000: system.cpu.execute.lsq.storeBuffer: StoreBuffer step numUnissuedAccesses: 0
1478000: system.cpu.execute.lsq: No matching memory response for inst: 0/43.3/113/528.528 pc: 0x101f6 (c_lui)
1478500: system.cpu.execute.lsq.storeBuffer: StoreBuffer step numUnissuedAccesses: 0
1479000: system.cpu.execute.lsq.storeBuffer: StoreBuffer step numUnissuedAccesses: 0
1479000: system.cpu.execute.lsq: Pushing request (load) addr: 0x11c68 size: 8 flags: 0x0 lineWidth : 0x40
1479000: system.cpu.execute.lsq: Setting state from NotIssued to InTranslation for request: 0/43.3/113/529.529 pc: 0x101f8 (ld)
1479000: system.cpu.execute.lsq: Submitting DTLB request
1479000: system.cpu.execute.lsq: Received translation response for request: 0/43.3/113/529.529 pc: 0x101f8 (ld)
1479000: system.cpu.execute.lsq: Setting state from InTranslation to Translated for request: 0/43.3/113/529.529 pc: 0x101f8 (ld)
1479000: system.cpu.execute.lsq: No forwardable data from store buffer
1479000: system.cpu.execute.lsq: Trying to send request: 0/43.3/113/529.529 pc: 0x101f8 (ld) addr: 0x11c68
1479000: system.cpu.execute.lsq: Sent data memory request
1479000: system.cpu.execute.lsq: Setting state from Translated to RequestIssuing for request: 0/43.3/113/529.529 pc: 0x101f8 (ld)
1479000: system.cpu.execute.lsq: No matching memory response for inst: 0/43.3/113/529.529 pc: 0x101f8 (ld)
1479000: system.cpu.execute.lsq: No matching memory response for inst: 0/43.3/113/529.529 pc: 0x101f8 (ld)
1479500: system.cpu.execute.lsq.storeBuffer: StoreBuffer step numUnissuedAccesses: 0
1479500: system.cpu.execute.lsq: No matching memory response for inst: 0/43.3/113/529.529 pc: 0x101f8 (ld)
1479500: system.cpu.execute.lsq: No matching memory response for inst: 0/43.3/113/529.529 pc: 0x101f8 (ld)
1480000: system.cpu.execute.lsq: Received response packet inst: 0/43.3/113/529.529 pc: 0x101f8 (ld) addr: 0x1c68 cmd: ReadResp
1480000: system.cpu.execute.lsq: Retiring packet
1480000: system.cpu.execute.lsq: Setting state from RequestIssuing to Complete for request: 0/43.3/113/529.529 pc: 0x101f8 (ld)
1480000: system.cpu.execute.lsq: Has outstanding packets?: 0 1
1480000: system.cpu.execute.lsq.storeBuffer: StoreBuffer step numUnissuedAccesses: 0
1480000: system.cpu.execute.lsq: Found matching memory response for inst: 0/43.3/113/529.529 pc: 0x101f8 (ld)
1480000: system.cpu.execute.lsq: Found matching memory response for inst: 0/43.3/113/529.529 pc: 0x101f8 (ld)
1480000: system.cpu.execute: Memory response inst: 0/43.3/113/529.529 pc: 0x101f8 (ld) addr: 0x1c68 size: 8
1480000: system.cpu.execute: Memory data[0]: 0x20
1480000: system.cpu.execute.lsq: Deleting load request: 0/43.3/113/529.529 pc: 0x101f8 (ld)
1480000: system.cpu.execute.lsq: Pushing request (load) addr: 0x11578 size: 8 flags: 0x0 lineWidth : 0x40
1480000: system.cpu.execute.lsq: Setting state from NotIssued to InTranslation for request: 0/43.3/113/530.530 pc: 0x101fc (c_ld)
1480000: system.cpu.execute.lsq: Submitting DTLB request
1480000: system.cpu.execute.lsq: Received translation response for request: 0/43.3/113/530.530 pc: 0x101fc (c_ld)
1480000: system.cpu.execute.lsq: Setting state from InTranslation to Translated for request: 0/43.3/113/530.530 pc: 0x101fc (c_ld)
1480000: system.cpu.execute.lsq: No forwardable data from store buffer
1480000: system.cpu.execute.lsq: Trying to send request: 0/43.3/113/530.530 pc: 0x101fc (c_ld) addr: 0x11578
1480000: system.cpu.execute.lsq: Sent data memory request
1480000: system.cpu.execute.lsq: Setting state from Translated to RequestIssuing for request: 0/43.3/113/530.530 pc: 0x101fc (c_ld)
1480000: system.cpu.execute.lsq: No matching memory response for inst: 0/43.3/113/530.530 pc: 0x101fc (c_ld)
1480000: system.cpu.execute.lsq: No matching memory response for inst: 0/43.3/113/530.530 pc: 0x101fc (c_ld)
1480500: system.cpu.execute.lsq.storeBuffer: StoreBuffer step numUnissuedAccesses: 0
1480500: system.cpu.execute.lsq: No matching memory response for inst: 0/43.3/113/530.530 pc: 0x101fc (c_ld)
1480500: system.cpu.execute.lsq: No matching memory response for inst: 0/43.3/113/530.530 pc: 0x101fc (c_ld)
1481000: system.cpu.execute.lsq: Received response packet inst: 0/43.3/113/530.530 pc: 0x101fc (c_ld) addr: 0x1578 cmd: ReadResp
1481000: system.cpu.execute.lsq: Retiring packet
1481000: system.cpu.execute.lsq: Setting state from RequestIssuing to Complete for request: 0/43.3/113/530.530 pc: 0x101fc (c_ld)
1481000: system.cpu.execute.lsq: Has outstanding packets?: 0 1
1481000: system.cpu.execute.lsq.storeBuffer: StoreBuffer step numUnissuedAccesses: 0
1481000: system.cpu.execute.lsq: Found matching memory response for inst: 0/43.3/113/530.530 pc: 0x101fc (c_ld)
1481000: system.cpu.execute.lsq: Found matching memory response for inst: 0/43.3/113/530.530 pc: 0x101fc (c_ld)
1481000: system.cpu.execute: Memory response inst: 0/43.3/113/530.530 pc: 0x101fc (c_ld) addr: 0x1578 size: 8
1481000: system.cpu.execute: Memory data[0]: 0x0
1481000: system.cpu.execute.lsq: Deleting load request: 0/43.3/113/530.530 pc: 0x101fc (c_ld)
1481500: system.cpu.execute.lsq.storeBuffer: StoreBuffer step numUnissuedAccesses: 0
1482000: system.cpu.execute.lsq.storeBuffer: StoreBuffer step numUnissuedAccesses: 0
1482500: system.cpu.execute.lsq.storeBuffer: StoreBuffer step numUnissuedAccesses: 0
1483500: system.cpu.execute.lsq.storeBuffer: StoreBuffer step numUnissuedAccesses: 0
1484000: system.cpu.execute.lsq.storeBuffer: StoreBuffer step numUnissuedAccesses: 0
1484500: system.cpu.execute.lsq.storeBuffer: StoreBuffer step numUnissuedAccesses: 0
1485000: system.cpu.execute.lsq.storeBuffer: StoreBuffer step numUnissuedAccesses: 0
1485000: system.cpu.execute.lsq: No matching memory response for inst: 0/44.3/116/539.539 pc: 0x10202 (c_mv)
1485500: system.cpu.execute.lsq.storeBuffer: StoreBuffer step numUnissuedAccesses: 0
1485500: system.cpu.execute.lsq: No matching memory response for inst: 0/44.3/116/539.539 pc: 0x10202 (c_mv)
1486000: system.cpu.execute.lsq.storeBuffer: StoreBuffer step numUnissuedAccesses: 0
1486500: system.cpu.execute.lsq.storeBuffer: StoreBuffer step numUnissuedAccesses: 0
1487000: system.cpu.execute.lsq.storeBuffer: StoreBuffer step numUnissuedAccesses: 0
1487500: system.cpu.execute.lsq.storeBuffer: StoreBuffer step numUnissuedAccesses: 0
1488000: system.cpu.execute.lsq.storeBuffer: StoreBuffer step numUnissuedAccesses: 0
1489000: system.cpu.execute.lsq.storeBuffer: StoreBuffer step numUnissuedAccesses: 0
1489500: system.cpu.execute.lsq.storeBuffer: StoreBuffer step numUnissuedAccesses: 0
1490000: system.cpu.execute.lsq.storeBuffer: StoreBuffer step numUnissuedAccesses: 0
1490500: system.cpu.execute.lsq.storeBuffer: StoreBuffer step numUnissuedAccesses: 0
1490500: system.cpu.execute.lsq: No matching memory response for inst: 0/45.3/118/546.546 pc: 0x1046a (c_li)
1491000: system.cpu.execute.lsq.storeBuffer: StoreBuffer step numUnissuedAccesses: 0
1491000: system.cpu.execute.lsq: No matching memory response for inst: 0/45.3/118/546.546 pc: 0x1046a (c_li)
1491500: system.cpu.execute.lsq.storeBuffer: StoreBuffer step numUnissuedAccesses: 0
1492000: system.cpu.execute.lsq.storeBuffer: StoreBuffer step numUnissuedAccesses: 0
1492500: system.cpu.execute.lsq.storeBuffer: StoreBuffer step numUnissuedAccesses: 0
1493000: system.cpu.execute.lsq.storeBuffer: StoreBuffer step numUnissuedAccesses: 0
1493500: system.cpu.execute.lsq.storeBuffer: StoreBuffer step numUnissuedAccesses: 0
1494000: system.cpu.execute.lsq.storeBuffer: StoreBuffer step numUnissuedAccesses: 0
1494500: system.cpu.execute.lsq.storeBuffer: StoreBuffer step numUnissuedAccesses: 0
1494500: system.cpu.execute.lsq: No matching memory response for inst: 0/45.3/118/553.553 pc: 0x1047c (bge)
Exiting @ tick 1494500 because exiting with last active thread context
