gem5 Simulator System.  http://gem5.org
gem5 is copyrighted software; use the --copyright option for details.

gem5 compiled Sep 27 2018 16:44:27
gem5 started Sep 27 2018 16:45:39
gem5 executing on octa, pid 32564
command line: gem5.opt --debug-flags=Ruby /home/vidushi/ss-stack/gem5/configs/example/se.py --cpu-type=MinorCPU --ruby --num-cpus=4 --num-dirs=4 --network=simple --topology=Mesh_XY --mesh-rows=2 --cmd=cpu

Global frequency set at 1000000000000 ticks per second
Loading SS Config (env SBCONFIG): "/home/vidushi/ss-stack/ss-tools/configs/spu_merge_test.sbmodel"
FU_FIFO_LEN:15
IND_ROB_SIZE:8
VPORT_IN depricated, ignoring colons, switch to PORT_IN
      0: system.ruby.l1_cntrl0.sequencer.pio-master-port: Created master pioport on sequencer system.ruby.l1_cntrl0.sequencer.pio-master-port
      0: system.ruby.l1_cntrl0.sequencer.pio-slave-port: Created slave pioport on sequencer system.ruby.l1_cntrl0.sequencer.pio-slave-port
      0: system.ruby.l1_cntrl0.sequencer.mem-master-port: Created master memport on ruby sequencer system.ruby.l1_cntrl0.sequencer.mem-master-port
      0: system.ruby.l1_cntrl0.sequencer-mem-slave-port: Created slave memport on ruby sequencer system.ruby.l1_cntrl0.sequencer-mem-slave-port
      0: system.ruby.l1_cntrl0.sequencer.slave0: Created slave memport on ruby sequencer system.ruby.l1_cntrl0.sequencer.slave0
      0: system.ruby.l1_cntrl0.sequencer.slave1: Created slave memport on ruby sequencer system.ruby.l1_cntrl0.sequencer.slave1
      0: system.ruby.l1_cntrl1.sequencer.pio-master-port: Created master pioport on sequencer system.ruby.l1_cntrl1.sequencer.pio-master-port
      0: system.ruby.l1_cntrl1.sequencer.pio-slave-port: Created slave pioport on sequencer system.ruby.l1_cntrl1.sequencer.pio-slave-port
      0: system.ruby.l1_cntrl1.sequencer.mem-master-port: Created master memport on ruby sequencer system.ruby.l1_cntrl1.sequencer.mem-master-port
      0: system.ruby.l1_cntrl1.sequencer-mem-slave-port: Created slave memport on ruby sequencer system.ruby.l1_cntrl1.sequencer-mem-slave-port
      0: system.ruby.l1_cntrl1.sequencer.slave0: Created slave memport on ruby sequencer system.ruby.l1_cntrl1.sequencer.slave0
      0: system.ruby.l1_cntrl1.sequencer.slave1: Created slave memport on ruby sequencer system.ruby.l1_cntrl1.sequencer.slave1
      0: system.ruby.l1_cntrl2.sequencer.pio-master-port: Created master pioport on sequencer system.ruby.l1_cntrl2.sequencer.pio-master-port
      0: system.ruby.l1_cntrl2.sequencer.pio-slave-port: Created slave pioport on sequencer system.ruby.l1_cntrl2.sequencer.pio-slave-port
      0: system.ruby.l1_cntrl2.sequencer.mem-master-port: Created master memport on ruby sequencer system.ruby.l1_cntrl2.sequencer.mem-master-port
      0: system.ruby.l1_cntrl2.sequencer-mem-slave-port: Created slave memport on ruby sequencer system.ruby.l1_cntrl2.sequencer-mem-slave-port
      0: system.ruby.l1_cntrl2.sequencer.slave0: Created slave memport on ruby sequencer system.ruby.l1_cntrl2.sequencer.slave0
      0: system.ruby.l1_cntrl2.sequencer.slave1: Created slave memport on ruby sequencer system.ruby.l1_cntrl2.sequencer.slave1
      0: system.ruby.l1_cntrl3.sequencer.pio-master-port: Created master pioport on sequencer system.ruby.l1_cntrl3.sequencer.pio-master-port
      0: system.ruby.l1_cntrl3.sequencer.pio-slave-port: Created slave pioport on sequencer system.ruby.l1_cntrl3.sequencer.pio-slave-port
      0: system.ruby.l1_cntrl3.sequencer.mem-master-port: Created master memport on ruby sequencer system.ruby.l1_cntrl3.sequencer.mem-master-port
      0: system.ruby.l1_cntrl3.sequencer-mem-slave-port: Created slave memport on ruby sequencer system.ruby.l1_cntrl3.sequencer-mem-slave-port
      0: system.ruby.l1_cntrl3.sequencer.slave0: Created slave memport on ruby sequencer system.ruby.l1_cntrl3.sequencer.slave0
      0: system.ruby.l1_cntrl3.sequencer.slave1: Created slave memport on ruby sequencer system.ruby.l1_cntrl3.sequencer.slave1
      0: system.sys_port_proxy.pio-master-port: Created master pioport on sequencer system.sys_port_proxy.pio-master-port
      0: system.sys_port_proxy.pio-slave-port: Created slave pioport on sequencer system.sys_port_proxy.pio-slave-port
      0: system.sys_port_proxy.mem-master-port: Created master memport on ruby sequencer system.sys_port_proxy.mem-master-port
      0: system.sys_port_proxy-mem-slave-port: Created slave memport on ruby sequencer system.sys_port_proxy-mem-slave-port
      0: system.sys_port_proxy.slave0: Created slave memport on ruby sequencer system.sys_port_proxy.slave0
      0: system.ruby.dir_cntrl0.dmaRequestToDir: Setting consumer: [Directory_Controller 0]
      0: system.ruby.dir_cntrl0.requestToDir: Setting consumer: [Directory_Controller 0]
      0: system.ruby.dir_cntrl0.responseFromMemory: Setting consumer: [Directory_Controller 0]
      0: system.ruby.dir_cntrl1.dmaRequestToDir: Setting consumer: [Directory_Controller 1]
      0: system.ruby.dir_cntrl1.requestToDir: Setting consumer: [Directory_Controller 1]
      0: system.ruby.dir_cntrl1.responseFromMemory: Setting consumer: [Directory_Controller 1]
      0: system.ruby.dir_cntrl2.dmaRequestToDir: Setting consumer: [Directory_Controller 2]
      0: system.ruby.dir_cntrl2.requestToDir: Setting consumer: [Directory_Controller 2]
      0: system.ruby.dir_cntrl2.responseFromMemory: Setting consumer: [Directory_Controller 2]
      0: system.ruby.dir_cntrl3.dmaRequestToDir: Setting consumer: [Directory_Controller 3]
      0: system.ruby.dir_cntrl3.requestToDir: Setting consumer: [Directory_Controller 3]
      0: system.ruby.dir_cntrl3.responseFromMemory: Setting consumer: [Directory_Controller 3]
      0: system.ruby.l1_cntrl0.forwardToCache: Setting consumer: [L1Cache_Controller 0]
      0: system.ruby.l1_cntrl0.responseToCache: Setting consumer: [L1Cache_Controller 0]
      0: system.ruby.l1_cntrl0.mandatoryQueue: Setting consumer: [L1Cache_Controller 0]
      0: system.ruby.l1_cntrl1.forwardToCache: Setting consumer: [L1Cache_Controller 1]
      0: system.ruby.l1_cntrl1.responseToCache: Setting consumer: [L1Cache_Controller 1]
      0: system.ruby.l1_cntrl1.mandatoryQueue: Setting consumer: [L1Cache_Controller 1]
      0: system.ruby.l1_cntrl2.forwardToCache: Setting consumer: [L1Cache_Controller 2]
      0: system.ruby.l1_cntrl2.responseToCache: Setting consumer: [L1Cache_Controller 2]
      0: system.ruby.l1_cntrl2.mandatoryQueue: Setting consumer: [L1Cache_Controller 2]
      0: system.ruby.l1_cntrl3.forwardToCache: Setting consumer: [L1Cache_Controller 3]
      0: system.ruby.l1_cntrl3.responseToCache: Setting consumer: [L1Cache_Controller 3]
      0: system.ruby.l1_cntrl3.mandatoryQueue: Setting consumer: [L1Cache_Controller 3]
      0: global: Returning shortest path
(src-(2*max_machines)): 4294967280, (next-(2*max_machines)): 0, src: 0, next: 16, result: [NetDest (17)  - 1 1 1 1  -  -  - 1 1 1 1  -  -  -  -  -  -  -  -  -  -  -  -  - ]
      0: system.ruby.l1_cntrl0.requestFromCache: Setting consumer: [PerfectSwitch 0]
      0: system.ruby.l1_cntrl0.responseFromCache: Setting consumer: [PerfectSwitch 0]
      0: global: Returning shortest path
(src-(2*max_machines)): 4294967281, (next-(2*max_machines)): 1, src: 1, next: 17, result: [NetDest (17)  - 1 1 1 1  -  -  - 1 1 1 1  -  -  -  -  -  -  -  -  -  -  -  -  - ]
      0: system.ruby.l1_cntrl1.requestFromCache: Setting consumer: [PerfectSwitch 1]
      0: system.ruby.l1_cntrl1.responseFromCache: Setting consumer: [PerfectSwitch 1]
      0: global: Returning shortest path
(src-(2*max_machines)): 4294967282, (next-(2*max_machines)): 2, src: 2, next: 18, result: [NetDest (17)  - 1 1 1 1  -  -  - 1 1 1 1  -  -  -  -  -  -  -  -  -  -  -  -  - ]
      0: system.ruby.l1_cntrl2.requestFromCache: Setting consumer: [PerfectSwitch 2]
      0: system.ruby.l1_cntrl2.responseFromCache: Setting consumer: [PerfectSwitch 2]
      0: global: Returning shortest path
(src-(2*max_machines)): 4294967283, (next-(2*max_machines)): 3, src: 3, next: 19, result: [NetDest (17)  - 1 1 1 1  -  -  - 1 1 1 1  -  -  -  -  -  -  -  -  -  -  -  -  - ]
      0: system.ruby.l1_cntrl3.requestFromCache: Setting consumer: [PerfectSwitch 3]
      0: system.ruby.l1_cntrl3.responseFromCache: Setting consumer: [PerfectSwitch 3]
      0: global: Returning shortest path
(src-(2*max_machines)): 4294967284, (next-(2*max_machines)): 0, src: 4, next: 16, result: [NetDest (17)  - 1 1 1 1  -  -  - 1 1 1 1  -  -  -  -  -  -  -  -  -  -  -  -  - ]
      0: system.ruby.dir_cntrl0.dmaResponseFromDir: Setting consumer: [PerfectSwitch 0]
      0: system.ruby.dir_cntrl0.forwardFromDir: Setting consumer: [PerfectSwitch 0]
      0: system.ruby.dir_cntrl0.responseFromDir: Setting consumer: [PerfectSwitch 0]
      0: global: Returning shortest path
(src-(2*max_machines)): 4294967285, (next-(2*max_machines)): 1, src: 5, next: 17, result: [NetDest (17)  - 1 1 1 1  -  -  - 1 1 1 1  -  -  -  -  -  -  -  -  -  -  -  -  - ]
      0: system.ruby.dir_cntrl1.dmaResponseFromDir: Setting consumer: [PerfectSwitch 1]
      0: system.ruby.dir_cntrl1.forwardFromDir: Setting consumer: [PerfectSwitch 1]
      0: system.ruby.dir_cntrl1.responseFromDir: Setting consumer: [PerfectSwitch 1]
      0: global: Returning shortest path
(src-(2*max_machines)): 4294967286, (next-(2*max_machines)): 2, src: 6, next: 18, result: [NetDest (17)  - 1 1 1 1  -  -  - 1 1 1 1  -  -  -  -  -  -  -  -  -  -  -  -  - ]
      0: system.ruby.dir_cntrl2.dmaResponseFromDir: Setting consumer: [PerfectSwitch 2]
      0: system.ruby.dir_cntrl2.forwardFromDir: Setting consumer: [PerfectSwitch 2]
      0: system.ruby.dir_cntrl2.responseFromDir: Setting consumer: [PerfectSwitch 2]
      0: global: Returning shortest path
(src-(2*max_machines)): 4294967287, (next-(2*max_machines)): 3, src: 7, next: 19, result: [NetDest (17)  - 1 1 1 1  -  -  - 1 1 1 1  -  -  -  -  -  -  -  -  -  -  -  -  - ]
      0: system.ruby.dir_cntrl3.dmaResponseFromDir: Setting consumer: [PerfectSwitch 3]
      0: system.ruby.dir_cntrl3.forwardFromDir: Setting consumer: [PerfectSwitch 3]
      0: system.ruby.dir_cntrl3.responseFromDir: Setting consumer: [PerfectSwitch 3]
      0: global: Returning shortest path
(src-(2*max_machines)): 0, (next-(2*max_machines)): 4294967288, src: 16, next: 8, result: [NetDest (17)  - 1 0 0 0  -  -  - 0 0 0 0  -  -  -  -  -  -  -  -  -  -  -  -  - ]
      0: system.ruby.network.routers0.port_buffers00: Setting consumer: [0 bw: 16000]
      0: system.ruby.network.routers0.port_buffers01: Setting consumer: [0 bw: 16000]
      0: system.ruby.network.routers0.port_buffers02: Setting consumer: [0 bw: 16000]
      0: system.ruby.network.routers0.port_buffers03: Setting consumer: [0 bw: 16000]
      0: system.ruby.network.routers0.port_buffers04: Setting consumer: [0 bw: 16000]
      0: global: Returning shortest path
(src-(2*max_machines)): 0, (next-(2*max_machines)): 4294967292, src: 16, next: 12, result: [NetDest (17)  - 0 0 0 0  -  -  - 1 0 0 0  -  -  -  -  -  -  -  -  -  -  -  -  - ]
      0: system.ruby.network.routers0.port_buffers05: Setting consumer: [1 bw: 16000]
      0: system.ruby.network.routers0.port_buffers06: Setting consumer: [1 bw: 16000]
      0: system.ruby.network.routers0.port_buffers07: Setting consumer: [1 bw: 16000]
      0: global: Returning shortest path
(src-(2*max_machines)): 0, (next-(2*max_machines)): 1, src: 16, next: 17, result: [NetDest (17)  - 0 1 0 1  -  -  - 0 1 0 1  -  -  -  -  -  -  -  -  -  -  -  -  - ]
      0: system.ruby.network.int_link_buffers00: Setting consumer: [PerfectSwitch 1]
      0: system.ruby.network.int_link_buffers01: Setting consumer: [PerfectSwitch 1]
      0: system.ruby.network.int_link_buffers02: Setting consumer: [PerfectSwitch 1]
      0: system.ruby.network.int_link_buffers03: Setting consumer: [PerfectSwitch 1]
      0: system.ruby.network.int_link_buffers04: Setting consumer: [PerfectSwitch 1]
      0: system.ruby.network.routers0.port_buffers08: Setting consumer: [2 bw: 16000]
      0: system.ruby.network.routers0.port_buffers09: Setting consumer: [2 bw: 16000]
      0: system.ruby.network.routers0.port_buffers10: Setting consumer: [2 bw: 16000]
      0: system.ruby.network.routers0.port_buffers11: Setting consumer: [2 bw: 16000]
      0: system.ruby.network.routers0.port_buffers12: Setting consumer: [2 bw: 16000]
      0: global: Returning shortest path
(src-(2*max_machines)): 0, (next-(2*max_machines)): 2, src: 16, next: 18, result: [NetDest (17)  - 0 0 1 1  -  -  - 0 0 1 1  -  -  -  -  -  -  -  -  -  -  -  -  - ]
      0: system.ruby.network.int_link_buffers05: Setting consumer: [PerfectSwitch 2]
      0: system.ruby.network.int_link_buffers06: Setting consumer: [PerfectSwitch 2]
      0: system.ruby.network.int_link_buffers07: Setting consumer: [PerfectSwitch 2]
      0: system.ruby.network.int_link_buffers08: Setting consumer: [PerfectSwitch 2]
      0: system.ruby.network.int_link_buffers09: Setting consumer: [PerfectSwitch 2]
      0: system.ruby.network.routers0.port_buffers13: Setting consumer: [3 bw: 16000]
      0: system.ruby.network.routers0.port_buffers14: Setting consumer: [3 bw: 16000]
      0: system.ruby.network.routers0.port_buffers15: Setting consumer: [3 bw: 16000]
      0: system.ruby.network.routers0.port_buffers16: Setting consumer: [3 bw: 16000]
      0: system.ruby.network.routers0.port_buffers17: Setting consumer: [3 bw: 16000]
      0: global: Returning shortest path
(src-(2*max_machines)): 1, (next-(2*max_machines)): 4294967289, src: 17, next: 9, result: [NetDest (17)  - 0 1 0 0  -  -  - 0 0 0 0  -  -  -  -  -  -  -  -  -  -  -  -  - ]
      0: system.ruby.network.routers1.port_buffers00: Setting consumer: [0 bw: 16000]
      0: system.ruby.network.routers1.port_buffers01: Setting consumer: [0 bw: 16000]
      0: system.ruby.network.routers1.port_buffers02: Setting consumer: [0 bw: 16000]
      0: system.ruby.network.routers1.port_buffers03: Setting consumer: [0 bw: 16000]
      0: system.ruby.network.routers1.port_buffers04: Setting consumer: [0 bw: 16000]
      0: global: Returning shortest path
(src-(2*max_machines)): 1, (next-(2*max_machines)): 4294967293, src: 17, next: 13, result: [NetDest (17)  - 0 0 0 0  -  -  - 0 1 0 0  -  -  -  -  -  -  -  -  -  -  -  -  - ]
      0: system.ruby.network.routers1.port_buffers05: Setting consumer: [1 bw: 16000]
      0: system.ruby.network.routers1.port_buffers06: Setting consumer: [1 bw: 16000]
      0: system.ruby.network.routers1.port_buffers07: Setting consumer: [1 bw: 16000]
      0: global: Returning shortest path
(src-(2*max_machines)): 1, (next-(2*max_machines)): 0, src: 17, next: 16, result: [NetDest (17)  - 1 0 1 0  -  -  - 1 0 1 0  -  -  -  -  -  -  -  -  -  -  -  -  - ]
      0: system.ruby.network.int_link_buffers10: Setting consumer: [PerfectSwitch 0]
      0: system.ruby.network.int_link_buffers11: Setting consumer: [PerfectSwitch 0]
      0: system.ruby.network.int_link_buffers12: Setting consumer: [PerfectSwitch 0]
      0: system.ruby.network.int_link_buffers13: Setting consumer: [PerfectSwitch 0]
      0: system.ruby.network.int_link_buffers14: Setting consumer: [PerfectSwitch 0]
      0: system.ruby.network.routers1.port_buffers08: Setting consumer: [2 bw: 16000]
      0: system.ruby.network.routers1.port_buffers09: Setting consumer: [2 bw: 16000]
      0: system.ruby.network.routers1.port_buffers10: Setting consumer: [2 bw: 16000]
      0: system.ruby.network.routers1.port_buffers11: Setting consumer: [2 bw: 16000]
      0: system.ruby.network.routers1.port_buffers12: Setting consumer: [2 bw: 16000]
      0: global: Returning shortest path
(src-(2*max_machines)): 1, (next-(2*max_machines)): 3, src: 17, next: 19, result: [NetDest (17)  - 0 0 1 1  -  -  - 0 0 1 1  -  -  -  -  -  -  -  -  -  -  -  -  - ]
      0: system.ruby.network.int_link_buffers15: Setting consumer: [PerfectSwitch 3]
      0: system.ruby.network.int_link_buffers16: Setting consumer: [PerfectSwitch 3]
      0: system.ruby.network.int_link_buffers17: Setting consumer: [PerfectSwitch 3]
      0: system.ruby.network.int_link_buffers18: Setting consumer: [PerfectSwitch 3]
      0: system.ruby.network.int_link_buffers19: Setting consumer: [PerfectSwitch 3]
      0: system.ruby.network.routers1.port_buffers13: Setting consumer: [3 bw: 16000]
      0: system.ruby.network.routers1.port_buffers14: Setting consumer: [3 bw: 16000]
      0: system.ruby.network.routers1.port_buffers15: Setting consumer: [3 bw: 16000]
      0: system.ruby.network.routers1.port_buffers16: Setting consumer: [3 bw: 16000]
      0: system.ruby.network.routers1.port_buffers17: Setting consumer: [3 bw: 16000]
      0: global: Returning shortest path
(src-(2*max_machines)): 2, (next-(2*max_machines)): 4294967290, src: 18, next: 10, result: [NetDest (17)  - 0 0 1 0  -  -  - 0 0 0 0  -  -  -  -  -  -  -  -  -  -  -  -  - ]
      0: system.ruby.network.routers2.port_buffers00: Setting consumer: [0 bw: 16000]
      0: system.ruby.network.routers2.port_buffers01: Setting consumer: [0 bw: 16000]
      0: system.ruby.network.routers2.port_buffers02: Setting consumer: [0 bw: 16000]
      0: system.ruby.network.routers2.port_buffers03: Setting consumer: [0 bw: 16000]
      0: system.ruby.network.routers2.port_buffers04: Setting consumer: [0 bw: 16000]
      0: global: Returning shortest path
(src-(2*max_machines)): 2, (next-(2*max_machines)): 4294967294, src: 18, next: 14, result: [NetDest (17)  - 0 0 0 0  -  -  - 0 0 1 0  -  -  -  -  -  -  -  -  -  -  -  -  - ]
      0: system.ruby.network.routers2.port_buffers05: Setting consumer: [1 bw: 16000]
      0: system.ruby.network.routers2.port_buffers06: Setting consumer: [1 bw: 16000]
      0: system.ruby.network.routers2.port_buffers07: Setting consumer: [1 bw: 16000]
      0: global: Returning shortest path
(src-(2*max_machines)): 2, (next-(2*max_machines)): 0, src: 18, next: 16, result: [NetDest (17)  - 1 1 0 0  -  -  - 1 1 0 0  -  -  -  -  -  -  -  -  -  -  -  -  - ]
      0: system.ruby.network.int_link_buffers20: Setting consumer: [PerfectSwitch 0]
      0: system.ruby.network.int_link_buffers21: Setting consumer: [PerfectSwitch 0]
      0: system.ruby.network.int_link_buffers22: Setting consumer: [PerfectSwitch 0]
      0: system.ruby.network.int_link_buffers23: Setting consumer: [PerfectSwitch 0]
      0: system.ruby.network.int_link_buffers24: Setting consumer: [PerfectSwitch 0]
      0: system.ruby.network.routers2.port_buffers08: Setting consumer: [2 bw: 16000]
      0: system.ruby.network.routers2.port_buffers09: Setting consumer: [2 bw: 16000]
      0: system.ruby.network.routers2.port_buffers10: Setting consumer: [2 bw: 16000]
      0: system.ruby.network.routers2.port_buffers11: Setting consumer: [2 bw: 16000]
      0: system.ruby.network.routers2.port_buffers12: Setting consumer: [2 bw: 16000]
      0: global: Returning shortest path
(src-(2*max_machines)): 2, (next-(2*max_machines)): 3, src: 18, next: 19, result: [NetDest (17)  - 0 1 0 1  -  -  - 0 1 0 1  -  -  -  -  -  -  -  -  -  -  -  -  - ]
      0: system.ruby.network.int_link_buffers25: Setting consumer: [PerfectSwitch 3]
      0: system.ruby.network.int_link_buffers26: Setting consumer: [PerfectSwitch 3]
      0: system.ruby.network.int_link_buffers27: Setting consumer: [PerfectSwitch 3]
      0: system.ruby.network.int_link_buffers28: Setting consumer: [PerfectSwitch 3]
      0: system.ruby.network.int_link_buffers29: Setting consumer: [PerfectSwitch 3]
      0: system.ruby.network.routers2.port_buffers13: Setting consumer: [3 bw: 16000]
      0: system.ruby.network.routers2.port_buffers14: Setting consumer: [3 bw: 16000]
      0: system.ruby.network.routers2.port_buffers15: Setting consumer: [3 bw: 16000]
      0: system.ruby.network.routers2.port_buffers16: Setting consumer: [3 bw: 16000]
      0: system.ruby.network.routers2.port_buffers17: Setting consumer: [3 bw: 16000]
      0: global: Returning shortest path
(src-(2*max_machines)): 3, (next-(2*max_machines)): 4294967291, src: 19, next: 11, result: [NetDest (17)  - 0 0 0 1  -  -  - 0 0 0 0  -  -  -  -  -  -  -  -  -  -  -  -  - ]
      0: system.ruby.network.routers3.port_buffers00: Setting consumer: [0 bw: 16000]
      0: system.ruby.network.routers3.port_buffers01: Setting consumer: [0 bw: 16000]
      0: system.ruby.network.routers3.port_buffers02: Setting consumer: [0 bw: 16000]
      0: system.ruby.network.routers3.port_buffers03: Setting consumer: [0 bw: 16000]
      0: system.ruby.network.routers3.port_buffers04: Setting consumer: [0 bw: 16000]
      0: global: Returning shortest path
(src-(2*max_machines)): 3, (next-(2*max_machines)): 4294967295, src: 19, next: 15, result: [NetDest (17)  - 0 0 0 0  -  -  - 0 0 0 1  -  -  -  -  -  -  -  -  -  -  -  -  - ]
      0: system.ruby.network.routers3.port_buffers05: Setting consumer: [1 bw: 16000]
      0: system.ruby.network.routers3.port_buffers06: Setting consumer: [1 bw: 16000]
      0: system.ruby.network.routers3.port_buffers07: Setting consumer: [1 bw: 16000]
      0: global: Returning shortest path
(src-(2*max_machines)): 3, (next-(2*max_machines)): 1, src: 19, next: 17, result: [NetDest (17)  - 1 1 0 0  -  -  - 1 1 0 0  -  -  -  -  -  -  -  -  -  -  -  -  - ]
      0: system.ruby.network.int_link_buffers30: Setting consumer: [PerfectSwitch 1]
      0: system.ruby.network.int_link_buffers31: Setting consumer: [PerfectSwitch 1]
      0: system.ruby.network.int_link_buffers32: Setting consumer: [PerfectSwitch 1]
      0: system.ruby.network.int_link_buffers33: Setting consumer: [PerfectSwitch 1]
      0: system.ruby.network.int_link_buffers34: Setting consumer: [PerfectSwitch 1]
      0: system.ruby.network.routers3.port_buffers08: Setting consumer: [2 bw: 16000]
      0: system.ruby.network.routers3.port_buffers09: Setting consumer: [2 bw: 16000]
      0: system.ruby.network.routers3.port_buffers10: Setting consumer: [2 bw: 16000]
      0: system.ruby.network.routers3.port_buffers11: Setting consumer: [2 bw: 16000]
      0: system.ruby.network.routers3.port_buffers12: Setting consumer: [2 bw: 16000]
      0: global: Returning shortest path
(src-(2*max_machines)): 3, (next-(2*max_machines)): 2, src: 19, next: 18, result: [NetDest (17)  - 1 0 1 0  -  -  - 1 0 1 0  -  -  -  -  -  -  -  -  -  -  -  -  - ]
      0: system.ruby.network.int_link_buffers35: Setting consumer: [PerfectSwitch 2]
      0: system.ruby.network.int_link_buffers36: Setting consumer: [PerfectSwitch 2]
      0: system.ruby.network.int_link_buffers37: Setting consumer: [PerfectSwitch 2]
      0: system.ruby.network.int_link_buffers38: Setting consumer: [PerfectSwitch 2]
      0: system.ruby.network.int_link_buffers39: Setting consumer: [PerfectSwitch 2]
      0: system.ruby.network.routers3.port_buffers13: Setting consumer: [3 bw: 16000]
      0: system.ruby.network.routers3.port_buffers14: Setting consumer: [3 bw: 16000]
      0: system.ruby.network.routers3.port_buffers15: Setting consumer: [3 bw: 16000]
      0: system.ruby.network.routers3.port_buffers16: Setting consumer: [3 bw: 16000]
      0: system.ruby.network.routers3.port_buffers17: Setting consumer: [3 bw: 16000]
      0: system.sys_port_proxy.slave0: Functional access for address: 0
      0: system.ruby: Functional Write request for 0
      0: system.ruby.dir_cntrl0.directory: Looking up address: 0
      0: system.ruby.dir_cntrl0.directory: Looking up address: 0
      0: system.ruby: Messages written = 1
      0: system.sys_port_proxy.slave0: Functional access successful!
      0: system.sys_port_proxy.slave0: Functional access for address: 0x40
      0: system.ruby: Functional Write request for 0x40
      0: system.ruby.dir_cntrl1.directory: Looking up address: 0x40
      0: system.ruby.dir_cntrl1.directory: Looking up address: 0x40
      0: system.ruby: Messages written = 1
      0: system.sys_port_proxy.slave0: Functional access successful!
      0: system.sys_port_proxy.slave0: Functional access for address: 0x80
      0: system.ruby: Functional Write request for 0x80
      0: system.ruby.dir_cntrl2.directory: Looking up address: 0x80
      0: system.ruby.dir_cntrl2.directory: Looking up address: 0x80
      0: system.ruby: Messages written = 1
      0: system.sys_port_proxy.slave0: Functional access successful!
      0: system.sys_port_proxy.slave0: Functional access for address: 0xc0
      0: system.ruby: Functional Write request for 0xc0
      0: system.ruby.dir_cntrl3.directory: Looking up address: 0xc0
      0: system.ruby.dir_cntrl3.directory: Looking up address: 0xc0
      0: system.ruby: Messages written = 1
      0: system.sys_port_proxy.slave0: Functional access successful!
      0: system.sys_port_proxy.slave0: Functional access for address: 0x100
      0: system.ruby: Functional Write request for 0x100
      0: system.ruby.dir_cntrl0.directory: Looking up address: 0x100
      0: system.ruby.dir_cntrl0.directory: Looking up address: 0x100
      0: system.ruby: Messages written = 1
      0: system.sys_port_proxy.slave0: Functional access successful!
      0: system.sys_port_proxy.slave0: Functional access for address: 0x140
      0: system.ruby: Functional Write request for 0x140
      0: system.ruby.dir_cntrl1.directory: Looking up address: 0x140
      0: system.ruby.dir_cntrl1.directory: Looking up address: 0x140
      0: system.ruby: Messages written = 1
      0: system.sys_port_proxy.slave0: Functional access successful!
      0: system.sys_port_proxy.slave0: Functional access for address: 0x180
      0: system.ruby: Functional Write request for 0x180
      0: system.ruby.dir_cntrl2.directory: Looking up address: 0x180
      0: system.ruby.dir_cntrl2.directory: Looking up address: 0x180
      0: system.ruby: Messages written = 1
      0: system.sys_port_proxy.slave0: Functional access successful!
      0: system.sys_port_proxy.slave0: Functional access for address: 0x1c0
      0: system.ruby: Functional Write request for 0x1c0
      0: system.ruby.dir_cntrl3.directory: Looking up address: 0x1c0
      0: system.ruby.dir_cntrl3.directory: Looking up address: 0x1c0
      0: system.ruby: Messages written = 1
      0: system.sys_port_proxy.slave0: Functional access successful!
      0: system.sys_port_proxy.slave0: Functional access for address: 0x200
      0: system.ruby: Functional Write request for 0x200
      0: system.ruby.dir_cntrl0.directory: Looking up address: 0x200
      0: system.ruby.dir_cntrl0.directory: Looking up address: 0x200
      0: system.ruby: Messages written = 1
      0: system.sys_port_proxy.slave0: Functional access successful!
      0: system.sys_port_proxy.slave0: Functional access for address: 0x240
      0: system.ruby: Functional Write request for 0x240
      0: system.ruby.dir_cntrl1.directory: Looking up address: 0x240
      0: system.ruby.dir_cntrl1.directory: Looking up address: 0x240
      0: system.ruby: Messages written = 1
      0: system.sys_port_proxy.slave0: Functional access successful!
      0: system.sys_port_proxy.slave0: Functional access for address: 0x280
      0: system.ruby: Functional Write request for 0x280
      0: system.ruby.dir_cntrl2.directory: Looking up address: 0x280
      0: system.ruby.dir_cntrl2.directory: Looking up address: 0x280
      0: system.ruby: Messages written = 1
      0: system.sys_port_proxy.slave0: Functional access successful!
      0: system.sys_port_proxy.slave0: Functional access for address: 0x2c0
      0: system.ruby: Functional Write request for 0x2c0
      0: system.ruby.dir_cntrl3.directory: Looking up address: 0x2c0
      0: system.ruby.dir_cntrl3.directory: Looking up address: 0x2c0
      0: system.ruby: Messages written = 1
      0: system.sys_port_proxy.slave0: Functional access successful!
      0: system.sys_port_proxy.slave0: Functional access for address: 0x300
      0: system.ruby: Functional Write request for 0x300
      0: system.ruby.dir_cntrl0.directory: Looking up address: 0x300
      0: system.ruby.dir_cntrl0.directory: Looking up address: 0x300
      0: system.ruby: Messages written = 1
      0: system.sys_port_proxy.slave0: Functional access successful!
      0: system.sys_port_proxy.slave0: Functional access for address: 0x340
      0: system.ruby: Functional Write request for 0x340
      0: system.ruby.dir_cntrl1.directory: Looking up address: 0x340
      0: system.ruby.dir_cntrl1.directory: Looking up address: 0x340
      0: system.ruby: Messages written = 1
      0: system.sys_port_proxy.slave0: Functional access successful!
      0: system.sys_port_proxy.slave0: Functional access for address: 0x380
      0: system.ruby: Functional Write request for 0x380
      0: system.ruby.dir_cntrl2.directory: Looking up address: 0x380
      0: system.ruby.dir_cntrl2.directory: Looking up address: 0x380
      0: system.ruby: Messages written = 1
      0: system.sys_port_proxy.slave0: Functional access successful!
      0: system.sys_port_proxy.slave0: Functional access for address: 0x3c0
      0: system.ruby: Functional Write request for 0x3c0
      0: system.ruby.dir_cntrl3.directory: Looking up address: 0x3c0
      0: system.ruby.dir_cntrl3.directory: Looking up address: 0x3c0
      0: system.ruby: Messages written = 1
      0: system.sys_port_proxy.slave0: Functional access successful!
      0: system.sys_port_proxy.slave0: Functional access for address: 0x400
      0: system.ruby: Functional Write request for 0x400
      0: system.ruby.dir_cntrl0.directory: Looking up address: 0x400
      0: system.ruby.dir_cntrl0.directory: Looking up address: 0x400
      0: system.ruby: Messages written = 1
      0: system.sys_port_proxy.slave0: Functional access successful!
      0: system.sys_port_proxy.slave0: Functional access for address: 0x440
      0: system.ruby: Functional Write request for 0x440
      0: system.ruby.dir_cntrl1.directory: Looking up address: 0x440
      0: system.ruby.dir_cntrl1.directory: Looking up address: 0x440
      0: system.ruby: Messages written = 1
      0: system.sys_port_proxy.slave0: Functional access successful!
      0: system.sys_port_proxy.slave0: Functional access for address: 0x1460
      0: system.ruby: Functional Write request for 0x1460
      0: system.ruby.dir_cntrl1.directory: Looking up address: 0x1440
      0: system.ruby.dir_cntrl1.directory: Looking up address: 0x1440
      0: system.ruby: Messages written = 1
      0: system.sys_port_proxy.slave0: Functional access successful!
      0: system.sys_port_proxy.slave0: Functional access for address: 0x1480
      0: system.ruby: Functional Write request for 0x1480
      0: system.ruby.dir_cntrl2.directory: Looking up address: 0x1480
      0: system.ruby.dir_cntrl2.directory: Looking up address: 0x1480
      0: system.ruby: Messages written = 1
      0: system.sys_port_proxy.slave0: Functional access successful!
      0: system.sys_port_proxy.slave0: Functional access for address: 0x14c0
      0: system.ruby: Functional Write request for 0x14c0
      0: system.ruby.dir_cntrl3.directory: Looking up address: 0x14c0
      0: system.ruby.dir_cntrl3.directory: Looking up address: 0x14c0
      0: system.ruby: Messages written = 1
      0: system.sys_port_proxy.slave0: Functional access successful!
      0: system.sys_port_proxy.slave0: Functional access for address: 0x1500
      0: system.ruby: Functional Write request for 0x1500
      0: system.ruby.dir_cntrl0.directory: Looking up address: 0x1500
      0: system.ruby.dir_cntrl0.directory: Looking up address: 0x1500
      0: system.ruby: Messages written = 1
      0: system.sys_port_proxy.slave0: Functional access successful!
      0: system.sys_port_proxy.slave0: Functional access for address: 0x1540
      0: system.ruby: Functional Write request for 0x1540
      0: system.ruby.dir_cntrl1.directory: Looking up address: 0x1540
      0: system.ruby.dir_cntrl1.directory: Looking up address: 0x1540
      0: system.ruby: Messages written = 1
      0: system.sys_port_proxy.slave0: Functional access successful!
      0: system.sys_port_proxy.slave0: Functional access for address: 0x1580
      0: system.ruby: Functional Write request for 0x1580
      0: system.ruby.dir_cntrl2.directory: Looking up address: 0x1580
      0: system.ruby.dir_cntrl2.directory: Looking up address: 0x1580
      0: system.ruby: Messages written = 1
      0: system.sys_port_proxy.slave0: Functional access successful!
      0: system.sys_port_proxy.slave0: Functional access for address: 0x15c0
      0: system.ruby: Functional Write request for 0x15c0
      0: system.ruby.dir_cntrl3.directory: Looking up address: 0x15c0
      0: system.ruby.dir_cntrl3.directory: Looking up address: 0x15c0
      0: system.ruby: Messages written = 1
      0: system.sys_port_proxy.slave0: Functional access successful!
      0: system.sys_port_proxy.slave0: Functional access for address: 0x1600
      0: system.ruby: Functional Write request for 0x1600
      0: system.ruby.dir_cntrl0.directory: Looking up address: 0x1600
      0: system.ruby.dir_cntrl0.directory: Looking up address: 0x1600
      0: system.ruby: Messages written = 1
      0: system.sys_port_proxy.slave0: Functional access successful!
      0: system.sys_port_proxy.slave0: Functional access for address: 0x1640
      0: system.ruby: Functional Write request for 0x1640
      0: system.ruby.dir_cntrl1.directory: Looking up address: 0x1640
      0: system.ruby.dir_cntrl1.directory: Looking up address: 0x1640
      0: system.ruby: Messages written = 1
      0: system.sys_port_proxy.slave0: Functional access successful!
      0: system.sys_port_proxy.slave0: Functional access for address: 0x1680
      0: system.ruby: Functional Write request for 0x1680
      0: system.ruby.dir_cntrl2.directory: Looking up address: 0x1680
      0: system.ruby.dir_cntrl2.directory: Looking up address: 0x1680
      0: system.ruby: Messages written = 1
      0: system.sys_port_proxy.slave0: Functional access successful!
      0: system.sys_port_proxy.slave0: Functional access for address: 0x16c0
      0: system.ruby: Functional Write request for 0x16c0
      0: system.ruby.dir_cntrl3.directory: Looking up address: 0x16c0
      0: system.ruby.dir_cntrl3.directory: Looking up address: 0x16c0
      0: system.ruby: Messages written = 1
      0: system.sys_port_proxy.slave0: Functional access successful!
      0: system.sys_port_proxy.slave0: Functional access for address: 0x1700
      0: system.ruby: Functional Write request for 0x1700
      0: system.ruby.dir_cntrl0.directory: Looking up address: 0x1700
      0: system.ruby.dir_cntrl0.directory: Looking up address: 0x1700
      0: system.ruby: Messages written = 1
      0: system.sys_port_proxy.slave0: Functional access successful!
      0: system.sys_port_proxy.slave0: Functional access for address: 0x1740
      0: system.ruby: Functional Write request for 0x1740
      0: system.ruby.dir_cntrl1.directory: Looking up address: 0x1740
      0: system.ruby.dir_cntrl1.directory: Looking up address: 0x1740
      0: system.ruby: Messages written = 1
      0: system.sys_port_proxy.slave0: Functional access successful!
      0: system.sys_port_proxy.slave0: Functional access for address: 0x1780
      0: system.ruby: Functional Write request for 0x1780
      0: system.ruby.dir_cntrl2.directory: Looking up address: 0x1780
      0: system.ruby.dir_cntrl2.directory: Looking up address: 0x1780
      0: system.ruby: Messages written = 1
      0: system.sys_port_proxy.slave0: Functional access successful!
      0: system.sys_port_proxy.slave0: Functional access for address: 0x17c0
      0: system.ruby: Functional Write request for 0x17c0
      0: system.ruby.dir_cntrl3.directory: Looking up address: 0x17c0
      0: system.ruby.dir_cntrl3.directory: Looking up address: 0x17c0
      0: system.ruby: Messages written = 1
      0: system.sys_port_proxy.slave0: Functional access successful!
      0: system.sys_port_proxy.slave0: Functional access for address: 0x1800
      0: system.ruby: Functional Write request for 0x1800
      0: system.ruby.dir_cntrl0.directory: Looking up address: 0x1800
      0: system.ruby.dir_cntrl0.directory: Looking up address: 0x1800
      0: system.ruby: Messages written = 1
      0: system.sys_port_proxy.slave0: Functional access successful!
      0: system.sys_port_proxy.slave0: Functional access for address: 0x1840
      0: system.ruby: Functional Write request for 0x1840
      0: system.ruby.dir_cntrl1.directory: Looking up address: 0x1840
      0: system.ruby.dir_cntrl1.directory: Looking up address: 0x1840
      0: system.ruby: Messages written = 1
      0: system.sys_port_proxy.slave0: Functional access successful!
      0: system.sys_port_proxy.slave0: Functional access for address: 0x1880
      0: system.ruby: Functional Write request for 0x1880
      0: system.ruby.dir_cntrl2.directory: Looking up address: 0x1880
      0: system.ruby.dir_cntrl2.directory: Looking up address: 0x1880
      0: system.ruby: Messages written = 1
      0: system.sys_port_proxy.slave0: Functional access successful!
      0: system.sys_port_proxy.slave0: Functional access for address: 0x18c0
      0: system.ruby: Functional Write request for 0x18c0
      0: system.ruby.dir_cntrl3.directory: Looking up address: 0x18c0
      0: system.ruby.dir_cntrl3.directory: Looking up address: 0x18c0
      0: system.ruby: Messages written = 1
      0: system.sys_port_proxy.slave0: Functional access successful!
      0: system.sys_port_proxy.slave0: Functional access for address: 0x1900
      0: system.ruby: Functional Write request for 0x1900
      0: system.ruby.dir_cntrl0.directory: Looking up address: 0x1900
      0: system.ruby.dir_cntrl0.directory: Looking up address: 0x1900
      0: system.ruby: Messages written = 1
      0: system.sys_port_proxy.slave0: Functional access successful!
      0: system.sys_port_proxy.slave0: Functional access for address: 0x1940
      0: system.ruby: Functional Write request for 0x1940
      0: system.ruby.dir_cntrl1.directory: Looking up address: 0x1940
      0: system.ruby.dir_cntrl1.directory: Looking up address: 0x1940
      0: system.ruby: Messages written = 1
      0: system.sys_port_proxy.slave0: Functional access successful!
      0: system.sys_port_proxy.slave0: Functional access for address: 0x1980
      0: system.ruby: Functional Write request for 0x1980
      0: system.ruby.dir_cntrl2.directory: Looking up address: 0x1980
      0: system.ruby.dir_cntrl2.directory: Looking up address: 0x1980
      0: system.ruby: Messages written = 1
      0: system.sys_port_proxy.slave0: Functional access successful!
      0: system.sys_port_proxy.slave0: Functional access for address: 0x19c0
      0: system.ruby: Functional Write request for 0x19c0
      0: system.ruby.dir_cntrl3.directory: Looking up address: 0x19c0
      0: system.ruby.dir_cntrl3.directory: Looking up address: 0x19c0
      0: system.ruby: Messages written = 1
      0: system.sys_port_proxy.slave0: Functional access successful!
      0: system.sys_port_proxy.slave0: Functional access for address: 0x1a00
      0: system.ruby: Functional Write request for 0x1a00
      0: system.ruby.dir_cntrl0.directory: Looking up address: 0x1a00
      0: system.ruby.dir_cntrl0.directory: Looking up address: 0x1a00
      0: system.ruby: Messages written = 1
      0: system.sys_port_proxy.slave0: Functional access successful!
      0: system.sys_port_proxy.slave0: Functional access for address: 0x1a40
      0: system.ruby: Functional Write request for 0x1a40
      0: system.ruby.dir_cntrl1.directory: Looking up address: 0x1a40
      0: system.ruby.dir_cntrl1.directory: Looking up address: 0x1a40
      0: system.ruby: Messages written = 1
      0: system.sys_port_proxy.slave0: Functional access successful!
      0: system.sys_port_proxy.slave0: Functional access for address: 0x1a80
      0: system.ruby: Functional Write request for 0x1a80
      0: system.ruby.dir_cntrl2.directory: Looking up address: 0x1a80
      0: system.ruby.dir_cntrl2.directory: Looking up address: 0x1a80
      0: system.ruby: Messages written = 1
      0: system.sys_port_proxy.slave0: Functional access successful!
      0: system.sys_port_proxy.slave0: Functional access for address: 0x1ac0
      0: system.ruby: Functional Write request for 0x1ac0
      0: system.ruby.dir_cntrl3.directory: Looking up address: 0x1ac0
      0: system.ruby.dir_cntrl3.directory: Looking up address: 0x1ac0
      0: system.ruby: Messages written = 1
      0: system.sys_port_proxy.slave0: Functional access successful!
      0: system.sys_port_proxy.slave0: Functional access for address: 0x1b00
      0: system.ruby: Functional Write request for 0x1b00
      0: system.ruby.dir_cntrl0.directory: Looking up address: 0x1b00
      0: system.ruby.dir_cntrl0.directory: Looking up address: 0x1b00
      0: system.ruby: Messages written = 1
      0: system.sys_port_proxy.slave0: Functional access successful!
      0: system.sys_port_proxy.slave0: Functional access for address: 0x1b40
      0: system.ruby: Functional Write request for 0x1b40
      0: system.ruby.dir_cntrl1.directory: Looking up address: 0x1b40
      0: system.ruby.dir_cntrl1.directory: Looking up address: 0x1b40
      0: system.ruby: Messages written = 1
      0: system.sys_port_proxy.slave0: Functional access successful!
      0: system.sys_port_proxy.slave0: Functional access for address: 0x1b80
      0: system.ruby: Functional Write request for 0x1b80
      0: system.ruby.dir_cntrl2.directory: Looking up address: 0x1b80
      0: system.ruby.dir_cntrl2.directory: Looking up address: 0x1b80
      0: system.ruby: Messages written = 1
      0: system.sys_port_proxy.slave0: Functional access successful!
      0: system.sys_port_proxy.slave0: Functional access for address: 0x1bc0
      0: system.ruby: Functional Write request for 0x1bc0
      0: system.ruby.dir_cntrl3.directory: Looking up address: 0x1bc0
      0: system.ruby.dir_cntrl3.directory: Looking up address: 0x1bc0
      0: system.ruby: Messages written = 1
      0: system.sys_port_proxy.slave0: Functional access successful!
      0: system.sys_port_proxy.slave0: Functional access for address: 0x1c00
      0: system.ruby: Functional Write request for 0x1c00
      0: system.ruby.dir_cntrl0.directory: Looking up address: 0x1c00
      0: system.ruby.dir_cntrl0.directory: Looking up address: 0x1c00
      0: system.ruby: Messages written = 1
      0: system.sys_port_proxy.slave0: Functional access successful!
      0: system.sys_port_proxy.slave0: Functional access for address: 0x2fef
      0: system.ruby: Functional Write request for 0x2fef
      0: system.ruby.dir_cntrl3.directory: Looking up address: 0x2fc0
      0: system.ruby.dir_cntrl3.directory: Looking up address: 0x2fc0
      0: system.ruby: Messages written = 1
      0: system.sys_port_proxy.slave0: Functional access successful!
      0: system.sys_port_proxy.slave0: Functional access for address: 0x2feb
      0: system.ruby: Functional Write request for 0x2feb
      0: system.ruby.dir_cntrl3.directory: Looking up address: 0x2fc0
      0: system.ruby: Messages written = 1
      0: system.sys_port_proxy.slave0: Functional access successful!
      0: system.sys_port_proxy.slave0: Functional access for address: 0x2fec
      0: system.ruby: Functional Write request for 0x2fec
      0: system.ruby.dir_cntrl3.directory: Looking up address: 0x2fc0
      0: system.ruby: Messages written = 1
      0: system.sys_port_proxy.slave0: Functional access successful!
      0: system.sys_port_proxy.slave0: Functional access for address: 0x2fed
      0: system.ruby: Functional Write request for 0x2fed
      0: system.ruby.dir_cntrl3.directory: Looking up address: 0x2fc0
      0: system.ruby: Messages written = 1
      0: system.sys_port_proxy.slave0: Functional access successful!
      0: system.sys_port_proxy.slave0: Functional access for address: 0x2fee
      0: system.ruby: Functional Write request for 0x2fee
      0: system.ruby.dir_cntrl3.directory: Looking up address: 0x2fc0
      0: system.ruby: Messages written = 1
      0: system.sys_port_proxy.slave0: Functional access successful!
      0: system.sys_port_proxy.slave0: Functional access for address: 0x2f40
      0: system.ruby: Functional Write request for 0x2f40
      0: system.ruby.dir_cntrl1.directory: Looking up address: 0x2f40
      0: system.ruby.dir_cntrl1.directory: Looking up address: 0x2f40
      0: system.ruby: Messages written = 1
      0: system.sys_port_proxy.slave0: Functional access successful!
      0: system.sys_port_proxy.slave0: Functional access for address: 0x2f48
      0: system.ruby: Functional Write request for 0x2f48
      0: system.ruby.dir_cntrl1.directory: Looking up address: 0x2f40
      0: system.ruby: Messages written = 1
      0: system.sys_port_proxy.slave0: Functional access successful!
      0: system.sys_port_proxy.slave0: Functional access for address: 0x2f50
      0: system.ruby: Functional Write request for 0x2f50
      0: system.ruby.dir_cntrl1.directory: Looking up address: 0x2f40
      0: system.ruby: Messages written = 1
      0: system.sys_port_proxy.slave0: Functional access successful!
      0: system.sys_port_proxy.slave0: Functional access for address: 0x2f58
      0: system.ruby: Functional Write request for 0x2f58
      0: system.ruby.dir_cntrl1.directory: Looking up address: 0x2f40
      0: system.ruby: Messages written = 1
      0: system.sys_port_proxy.slave0: Functional access successful!
      0: system.sys_port_proxy.slave0: Functional access for address: 0x2f60
      0: system.ruby: Functional Write request for 0x2f60
      0: system.ruby.dir_cntrl1.directory: Looking up address: 0x2f40
      0: system.ruby: Messages written = 1
      0: system.sys_port_proxy.slave0: Functional access successful!
      0: system.sys_port_proxy.slave0: Functional access for address: 0x2f68
      0: system.ruby: Functional Write request for 0x2f68
      0: system.ruby.dir_cntrl1.directory: Looking up address: 0x2f40
      0: system.ruby: Messages written = 1
      0: system.sys_port_proxy.slave0: Functional access successful!
      0: system.sys_port_proxy.slave0: Functional access for address: 0x2f70
      0: system.ruby: Functional Write request for 0x2f70
      0: system.ruby.dir_cntrl1.directory: Looking up address: 0x2f40
      0: system.ruby: Messages written = 1
      0: system.sys_port_proxy.slave0: Functional access successful!
      0: system.sys_port_proxy.slave0: Functional access for address: 0x2f78
      0: system.ruby: Functional Write request for 0x2f78
      0: system.ruby.dir_cntrl1.directory: Looking up address: 0x2f40
      0: system.ruby: Messages written = 1
      0: system.sys_port_proxy.slave0: Functional access successful!
      0: system.sys_port_proxy.slave0: Functional access for address: 0x2f80
      0: system.ruby: Functional Write request for 0x2f80
      0: system.ruby.dir_cntrl2.directory: Looking up address: 0x2f80
      0: system.ruby.dir_cntrl2.directory: Looking up address: 0x2f80
      0: system.ruby: Messages written = 1
      0: system.sys_port_proxy.slave0: Functional access successful!
      0: system.sys_port_proxy.slave0: Functional access for address: 0x2f88
      0: system.ruby: Functional Write request for 0x2f88
      0: system.ruby.dir_cntrl2.directory: Looking up address: 0x2f80
      0: system.ruby: Messages written = 1
      0: system.sys_port_proxy.slave0: Functional access successful!
      0: system.sys_port_proxy.slave0: Functional access for address: 0x2f90
      0: system.ruby: Functional Write request for 0x2f90
      0: system.ruby.dir_cntrl2.directory: Looking up address: 0x2f80
      0: system.ruby: Messages written = 1
      0: system.sys_port_proxy.slave0: Functional access successful!
      0: system.sys_port_proxy.slave0: Functional access for address: 0x2f98
      0: system.ruby: Functional Write request for 0x2f98
      0: system.ruby.dir_cntrl2.directory: Looking up address: 0x2f80
      0: system.ruby: Messages written = 1
      0: system.sys_port_proxy.slave0: Functional access successful!
      0: system.sys_port_proxy.slave0: Functional access for address: 0x2fa0
      0: system.ruby: Functional Write request for 0x2fa0
      0: system.ruby.dir_cntrl2.directory: Looking up address: 0x2f80
      0: system.ruby: Messages written = 1
      0: system.sys_port_proxy.slave0: Functional access successful!
      0: system.sys_port_proxy.slave0: Functional access for address: 0x2fa8
      0: system.ruby: Functional Write request for 0x2fa8
      0: system.ruby.dir_cntrl2.directory: Looking up address: 0x2f80
      0: system.ruby: Messages written = 1
      0: system.sys_port_proxy.slave0: Functional access successful!
      0: system.sys_port_proxy.slave0: Functional access for address: 0x2fb0
      0: system.ruby: Functional Write request for 0x2fb0
      0: system.ruby.dir_cntrl2.directory: Looking up address: 0x2f80
      0: system.ruby: Messages written = 1
      0: system.sys_port_proxy.slave0: Functional access successful!
      0: system.sys_port_proxy.slave0: Functional access for address: 0x2fb8
      0: system.ruby: Functional Write request for 0x2fb8
      0: system.ruby.dir_cntrl2.directory: Looking up address: 0x2f80
      0: system.ruby: Messages written = 1
      0: system.sys_port_proxy.slave0: Functional access successful!
      0: system.sys_port_proxy.slave0: Functional access for address: 0x2fc0
      0: system.ruby: Functional Write request for 0x2fc0
      0: system.ruby.dir_cntrl3.directory: Looking up address: 0x2fc0
      0: system.ruby: Messages written = 1
      0: system.sys_port_proxy.slave0: Functional access successful!
      0: system.sys_port_proxy.slave0: Functional access for address: 0x2fc8
      0: system.ruby: Functional Write request for 0x2fc8
      0: system.ruby.dir_cntrl3.directory: Looking up address: 0x2fc0
      0: system.ruby: Messages written = 1
      0: system.sys_port_proxy.slave0: Functional access successful!
      0: system.sys_port_proxy.slave0: Functional access for address: 0x2fd0
      0: system.ruby: Functional Write request for 0x2fd0
      0: system.ruby.dir_cntrl3.directory: Looking up address: 0x2fc0
      0: system.ruby: Messages written = 1
      0: system.sys_port_proxy.slave0: Functional access successful!
      0: system.sys_port_proxy.slave0: Functional access for address: 0x2fd8
      0: system.ruby: Functional Write request for 0x2fd8
      0: system.ruby.dir_cntrl3.directory: Looking up address: 0x2fc0
      0: system.ruby: Messages written = 1
      0: system.sys_port_proxy.slave0: Functional access successful!
**** REAL SIMULATION ****
    500: system.ruby.l1_cntrl0.sequencer.slave0: Timing request for address 0x80 on port 0
    500: system.ruby.l1_cntrl0.mandatoryQueue: Enqueue arrival_time: 1000, Message: [RubyRequest: LineAddress = 0x80 PhysicalAddress = 0x80 Type = IFETCH ProgramCounter = 0x100b4 AccessMode = Supervisor Size = 64 Prefetch = No ]
    500: system.ruby.l1_cntrl0.sequencer.slave0: Request ReadReq address 0x80 issued
   1000: system.ruby.l1_cntrl0.mandatoryQueue: Peeking at head of queue.
   1000: system.ruby.l1_cntrl0.mandatoryQueue: Message: [RubyRequest: LineAddress = 0x80 PhysicalAddress = 0x80 Type = IFETCH ProgramCounter = 0x100b4 AccessMode = Supervisor Size = 64 Prefetch = No ]
   1000: system.ruby.l1_cntrl0: [L1Cache_Controller 0], Time: 2, state: I, event: Ifetch, addr: 0x80
   1000: system.ruby.l1_cntrl0: executing v_allocateTBE
   1000: system.ruby.l1_cntrl0: executing i_allocateL1CacheBlock
   1000: system.ruby.l1_cntrl0.cacheMemory: No tag match for address: 0x80
   1000: system.ruby.l1_cntrl0.cacheMemory: address: 0x80
   1000: system.ruby.l1_cntrl0.cacheMemory: Allocate clearing lock for addr: 80
   1000: system.ruby.l1_cntrl0: executing a_issueRequest
   1000: system.ruby.l1_cntrl0.requestFromCache: Enqueue arrival_time: 2000, Message: [RequestMsg: addr = [0x80, line 0x80] Type = GETX Requestor = L1Cache-0 Destination = [NetDest (17)  - 0 0 0 0  -  -  - 0 0 1 0  -  -  -  -  -  -  -  -  -  -  -  -  - ] DataBlk = [ 0x0 0x0 0x0 0x0 0x0 0x0 0x0 0x0 0x0 0x0 0x0 0x0 0x0 0x0 0x0 0x0 0x0 0x0 0x0 0x0 0x0 0x0 0x0 0x0 0x0 0x0 0x0 0x0 0x0 0x0 0x0 0x0 0x0 0x0 0x0 0x0 0x0 0x0 0x0 0x0 0x0 0x0 0x0 0x0 0x0 0x0 0x0 0x0 0x0 0x0 0x0 0x0 0x0 0x0 0x0 0x0 0x0 0x0 0x0 0x0 0x0 0x0 0x0 0x0 ] MessageSize = Control ]
   1000: system.ruby.l1_cntrl0: executing p_profileMiss
   1000: system.ruby.l1_cntrl0: executing m_popMandatoryQueue
   1000: system.ruby.l1_cntrl0.mandatoryQueue: Popping
   1000: system.ruby.l1_cntrl0: next_state: IS
   2000: PerfectSwitch-0: incoming: 0
   2000: PerfectSwitch-0: Message: [RequestMsg: addr = [0x80, line 0x80] Type = GETX Requestor = L1Cache-0 Destination = [NetDest (17)  - 0 0 0 0  -  -  - 0 0 1 0  -  -  -  -  -  -  -  -  -  -  -  -  - ] DataBlk = [ 0x0 0x0 0x0 0x0 0x0 0x0 0x0 0x0 0x0 0x0 0x0 0x0 0x0 0x0 0x0 0x0 0x0 0x0 0x0 0x0 0x0 0x0 0x0 0x0 0x0 0x0 0x0 0x0 0x0 0x0 0x0 0x0 0x0 0x0 0x0 0x0 0x0 0x0 0x0 0x0 0x0 0x0 0x0 0x0 0x0 0x0 0x0 0x0 0x0 0x0 0x0 0x0 0x0 0x0 0x0 0x0 0x0 0x0 0x0 0x0 0x0 0x0 0x0 0x0 ] MessageSize = Control ]
   2000: PerfectSwitch-0: dst: [NetDest (17)  - 1 0 0 0  -  -  - 0 0 0 0  -  -  -  -  -  -  -  -  -  -  -  -  - ]
   2000: PerfectSwitch-0: dst: [NetDest (17)  - 0 0 0 0  -  -  - 1 0 0 0  -  -  -  -  -  -  -  -  -  -  -  -  - ]
   2000: PerfectSwitch-0: dst: [NetDest (17)  - 0 1 0 1  -  -  - 0 1 0 1  -  -  -  -  -  -  -  -  -  -  -  -  - ]
   2000: PerfectSwitch-0: dst: [NetDest (17)  - 0 0 1 1  -  -  - 0 0 1 1  -  -  -  -  -  -  -  -  -  -  -  -  - ]
   2000: PerfectSwitch-0: Checking if node is blocked ...outgoing: 3, vnet: 2, enough: 1
   2000: system.ruby.l1_cntrl0.requestFromCache: Popping
   2000: PerfectSwitch-0: Enqueuing net msg from inport[0][2] to outport [3][2].
   2000: system.ruby.network.routers0.port_buffers15: Enqueue arrival_time: 2500, Message: [RequestMsg: addr = [0x80, line 0x80] Type = GETX Requestor = L1Cache-0 Destination = [NetDest (17)  - 0 0 0 0  -  -  - 0 0 1 0  -  -  -  -  -  -  -  -  -  -  -  -  - ] DataBlk = [ 0x0 0x0 0x0 0x0 0x0 0x0 0x0 0x0 0x0 0x0 0x0 0x0 0x0 0x0 0x0 0x0 0x0 0x0 0x0 0x0 0x0 0x0 0x0 0x0 0x0 0x0 0x0 0x0 0x0 0x0 0x0 0x0 0x0 0x0 0x0 0x0 0x0 0x0 0x0 0x0 0x0 0x0 0x0 0x0 0x0 0x0 0x0 0x0 0x0 0x0 0x0 0x0 0x0 0x0 0x0 0x0 0x0 0x0 0x0 0x0 0x0 0x0 0x0 0x0 ] MessageSize = Control ]
   2500: Throttle-0: throttle: 3 my bw 16000 bw spent enqueueing net msg 8000 time: 5.
   2500: system.ruby.network.routers0.port_buffers15: Popping
   2500: system.ruby.network.int_link_buffers07: Enqueue arrival_time: 3000, Message: [RequestMsg: addr = [0x80, line 0x80] Type = GETX Requestor = L1Cache-0 Destination = [NetDest (17)  - 0 0 0 0  -  -  - 0 0 1 0  -  -  -  -  -  -  -  -  -  -  -  -  - ] DataBlk = [ 0x0 0x0 0x0 0x0 0x0 0x0 0x0 0x0 0x0 0x0 0x0 0x0 0x0 0x0 0x0 0x0 0x0 0x0 0x0 0x0 0x0 0x0 0x0 0x0 0x0 0x0 0x0 0x0 0x0 0x0 0x0 0x0 0x0 0x0 0x0 0x0 0x0 0x0 0x0 0x0 0x0 0x0 0x0 0x0 0x0 0x0 0x0 0x0 0x0 0x0 0x0 0x0 0x0 0x0 0x0 0x0 0x0 0x0 0x0 0x0 0x0 0x0 0x0 0x0 ] MessageSize = Control ]
   2500: Throttle-0: [MessageBuffer:  consumer-yes [ 0x3d69d60 ]] system.ruby.network.int_link_buffers07
   2500: Throttle-0: [3 bw: 16000] not scheduled again
   3000: PerfectSwitch-2: incoming: 2
   3000: PerfectSwitch-2: Message: [RequestMsg: addr = [0x80, line 0x80] Type = GETX Requestor = L1Cache-0 Destination = [NetDest (17)  - 0 0 0 0  -  -  - 0 0 1 0  -  -  -  -  -  -  -  -  -  -  -  -  - ] DataBlk = [ 0x0 0x0 0x0 0x0 0x0 0x0 0x0 0x0 0x0 0x0 0x0 0x0 0x0 0x0 0x0 0x0 0x0 0x0 0x0 0x0 0x0 0x0 0x0 0x0 0x0 0x0 0x0 0x0 0x0 0x0 0x0 0x0 0x0 0x0 0x0 0x0 0x0 0x0 0x0 0x0 0x0 0x0 0x0 0x0 0x0 0x0 0x0 0x0 0x0 0x0 0x0 0x0 0x0 0x0 0x0 0x0 0x0 0x0 0x0 0x0 0x0 0x0 0x0 0x0 ] MessageSize = Control ]
   3000: PerfectSwitch-2: dst: [NetDest (17)  - 0 0 1 0  -  -  - 0 0 0 0  -  -  -  -  -  -  -  -  -  -  -  -  - ]
   3000: PerfectSwitch-2: dst: [NetDest (17)  - 0 0 0 0  -  -  - 0 0 1 0  -  -  -  -  -  -  -  -  -  -  -  -  - ]
   3000: PerfectSwitch-2: dst: [NetDest (17)  - 1 1 0 0  -  -  - 1 1 0 0  -  -  -  -  -  -  -  -  -  -  -  -  - ]
   3000: PerfectSwitch-2: dst: [NetDest (17)  - 0 1 0 1  -  -  - 0 1 0 1  -  -  -  -  -  -  -  -  -  -  -  -  - ]
   3000: PerfectSwitch-2: Checking if node is blocked ...outgoing: 1, vnet: 2, enough: 1
   3000: system.ruby.network.int_link_buffers07: Popping
   3000: PerfectSwitch-2: Enqueuing net msg from inport[2][2] to outport [1][2].
   3000: system.ruby.network.routers2.port_buffers07: Enqueue arrival_time: 3500, Message: [RequestMsg: addr = [0x80, line 0x80] Type = GETX Requestor = L1Cache-0 Destination = [NetDest (17)  - 0 0 0 0  -  -  - 0 0 1 0  -  -  -  -  -  -  -  -  -  -  -  -  - ] DataBlk = [ 0x0 0x0 0x0 0x0 0x0 0x0 0x0 0x0 0x0 0x0 0x0 0x0 0x0 0x0 0x0 0x0 0x0 0x0 0x0 0x0 0x0 0x0 0x0 0x0 0x0 0x0 0x0 0x0 0x0 0x0 0x0 0x0 0x0 0x0 0x0 0x0 0x0 0x0 0x0 0x0 0x0 0x0 0x0 0x0 0x0 0x0 0x0 0x0 0x0 0x0 0x0 0x0 0x0 0x0 0x0 0x0 0x0 0x0 0x0 0x0 0x0 0x0 0x0 0x0 ] MessageSize = Control ]
   3500: Throttle-2: throttle: 1 my bw 16000 bw spent enqueueing net msg 8000 time: 7.
   3500: system.ruby.network.routers2.port_buffers07: Popping
   3500: system.ruby.dir_cntrl2.requestToDir: Enqueue arrival_time: 4000, Message: [RequestMsg: addr = [0x80, line 0x80] Type = GETX Requestor = L1Cache-0 Destination = [NetDest (17)  - 0 0 0 0  -  -  - 0 0 1 0  -  -  -  -  -  -  -  -  -  -  -  -  - ] DataBlk = [ 0x0 0x0 0x0 0x0 0x0 0x0 0x0 0x0 0x0 0x0 0x0 0x0 0x0 0x0 0x0 0x0 0x0 0x0 0x0 0x0 0x0 0x0 0x0 0x0 0x0 0x0 0x0 0x0 0x0 0x0 0x0 0x0 0x0 0x0 0x0 0x0 0x0 0x0 0x0 0x0 0x0 0x0 0x0 0x0 0x0 0x0 0x0 0x0 0x0 0x0 0x0 0x0 0x0 0x0 0x0 0x0 0x0 0x0 0x0 0x0 0x0 0x0 0x0 0x0 ] MessageSize = Control ]
   3500: Throttle-2: [MessageBuffer:  consumer-yes [ 0x3d69d60 ]] system.ruby.dir_cntrl2.requestToDir
   3500: Throttle-2: [1 bw: 16000] not scheduled again
   4000: system.ruby.dir_cntrl2.requestToDir: Peeking at head of queue.
   4000: system.ruby.dir_cntrl2.requestToDir: Message: [RequestMsg: addr = [0x80, line 0x80] Type = GETX Requestor = L1Cache-0 Destination = [NetDest (17)  - 0 0 0 0  -  -  - 0 0 1 0  -  -  -  -  -  -  -  -  -  -  -  -  - ] DataBlk = [ 0x0 0x0 0x0 0x0 0x0 0x0 0x0 0x0 0x0 0x0 0x0 0x0 0x0 0x0 0x0 0x0 0x0 0x0 0x0 0x0 0x0 0x0 0x0 0x0 0x0 0x0 0x0 0x0 0x0 0x0 0x0 0x0 0x0 0x0 0x0 0x0 0x0 0x0 0x0 0x0 0x0 0x0 0x0 0x0 0x0 0x0 0x0 0x0 0x0 0x0 0x0 0x0 0x0 0x0 0x0 0x0 0x0 0x0 0x0 0x0 0x0 0x0 0x0 0x0 ] MessageSize = Control ]
   4000: system.ruby.dir_cntrl2.directory: Looking up address: 0x80
   4000: system.ruby.dir_cntrl2: [Directory_Controller 2], Time: 8, state: I, event: GETX, addr: 0x80
   4000: system.ruby.dir_cntrl2: executing qf_queueMemoryFetchRequest
   4000: system.ruby.dir_cntrl2.requestToDir: Peeking at head of queue.
   4000: system.ruby.dir_cntrl2.requestToDir: Message: [RequestMsg: addr = [0x80, line 0x80] Type = GETX Requestor = L1Cache-0 Destination = [NetDest (17)  - 0 0 0 0  -  -  - 0 0 1 0  -  -  -  -  -  -  -  -  -  -  -  -  - ] DataBlk = [ 0x0 0x0 0x0 0x0 0x0 0x0 0x0 0x0 0x0 0x0 0x0 0x0 0x0 0x0 0x0 0x0 0x0 0x0 0x0 0x0 0x0 0x0 0x0 0x0 0x0 0x0 0x0 0x0 0x0 0x0 0x0 0x0 0x0 0x0 0x0 0x0 0x0 0x0 0x0 0x0 0x0 0x0 0x0 0x0 0x0 0x0 0x0 0x0 0x0 0x0 0x0 0x0 0x0 0x0 0x0 0x0 0x0 0x0 0x0 0x0 0x0 0x0 0x0 0x0 ] MessageSize = Control ]
   4000: system.ruby.dir_cntrl2: executing e_ownerIsRequestor
   4000: system.ruby.dir_cntrl2.requestToDir: Peeking at head of queue.
   4000: system.ruby.dir_cntrl2.requestToDir: Message: [RequestMsg: addr = [0x80, line 0x80] Type = GETX Requestor = L1Cache-0 Destination = [NetDest (17)  - 0 0 0 0  -  -  - 0 0 1 0  -  -  -  -  -  -  -  -  -  -  -  -  - ] DataBlk = [ 0x0 0x0 0x0 0x0 0x0 0x0 0x0 0x0 0x0 0x0 0x0 0x0 0x0 0x0 0x0 0x0 0x0 0x0 0x0 0x0 0x0 0x0 0x0 0x0 0x0 0x0 0x0 0x0 0x0 0x0 0x0 0x0 0x0 0x0 0x0 0x0 0x0 0x0 0x0 0x0 0x0 0x0 0x0 0x0 0x0 0x0 0x0 0x0 0x0 0x0 0x0 0x0 0x0 0x0 0x0 0x0 0x0 0x0 0x0 0x0 0x0 0x0 0x0 0x0 ] MessageSize = Control ]
   4000: system.ruby.dir_cntrl2.directory: Looking up address: 0x80
   4000: system.ruby.dir_cntrl2.directory: Looking up address: 0x80
   4000: system.ruby.dir_cntrl2: executing i_popIncomingRequestQueue
   4000: system.ruby.dir_cntrl2.requestToDir: Popping
   4000: system.ruby.dir_cntrl2: next_state: IM
   4000: system.ruby.dir_cntrl2.directory: Looking up address: 0x80
   4000: system.ruby.dir_cntrl2.directory: Looking up address: 0x80
  66250: system.ruby.dir_cntrl2.responseFromMemory: Enqueue arrival_time: 67000, Message: [MemoryMsg: addr = [0x80, line 0x80] Type = MEMORY_READ Sender = Directory-2 OriginalRequestorMachId = L1Cache-0 DataBlk = [ 0x60 0x4 0x0 0x0 0x0 0x0 0x0 0x0 0x60 0x14 0x1 0x0 0x0 0x0 0x0 0x0 0x60 0x14 0x1 0x0 0x0 0x0 0x0 0x0 0xa0 0x7 0x0 0x0 0x0 0x0 0x0 0x0 0xd8 0x7 0x0 0x0 0x0 0x0 0x0 0x0 0x0 0x10 0x0 0x0 0x0 0x0 0x0 0x0 0x1 0x45 0x82 0x80 0x97 0x21 0x0 0x0 0x93 0x81 0x41 0x33 0x13 0x85 0x81 0x81 ] MessageSize = Response_Data Prefetch = No ReadX = 0 Acks = 0 ]
  67000: system.ruby.dir_cntrl2.responseFromMemory: Peeking at head of queue.
  67000: system.ruby.dir_cntrl2.responseFromMemory: Message: [MemoryMsg: addr = [0x80, line 0x80] Type = MEMORY_READ Sender = Directory-2 OriginalRequestorMachId = L1Cache-0 DataBlk = [ 0x60 0x4 0x0 0x0 0x0 0x0 0x0 0x0 0x60 0x14 0x1 0x0 0x0 0x0 0x0 0x0 0x60 0x14 0x1 0x0 0x0 0x0 0x0 0x0 0xa0 0x7 0x0 0x0 0x0 0x0 0x0 0x0 0xd8 0x7 0x0 0x0 0x0 0x0 0x0 0x0 0x0 0x10 0x0 0x0 0x0 0x0 0x0 0x0 0x1 0x45 0x82 0x80 0x97 0x21 0x0 0x0 0x93 0x81 0x41 0x33 0x13 0x85 0x81 0x81 ] MessageSize = Response_Data Prefetch = No ReadX = 0 Acks = 0 ]
  67000: system.ruby.dir_cntrl2.directory: Looking up address: 0x80
  67000: system.ruby.dir_cntrl2: [Directory_Controller 2], Time: 134, state: IM, event: Memory_Data, addr: 0x80
  67000: system.ruby.dir_cntrl2: executing d_sendData
  67000: system.ruby.dir_cntrl2.responseFromMemory: Peeking at head of queue.
  67000: system.ruby.dir_cntrl2.responseFromMemory: Message: [MemoryMsg: addr = [0x80, line 0x80] Type = MEMORY_READ Sender = Directory-2 OriginalRequestorMachId = L1Cache-0 DataBlk = [ 0x60 0x4 0x0 0x0 0x0 0x0 0x0 0x0 0x60 0x14 0x1 0x0 0x0 0x0 0x0 0x0 0x60 0x14 0x1 0x0 0x0 0x0 0x0 0x0 0xa0 0x7 0x0 0x0 0x0 0x0 0x0 0x0 0xd8 0x7 0x0 0x0 0x0 0x0 0x0 0x0 0x0 0x10 0x0 0x0 0x0 0x0 0x0 0x0 0x1 0x45 0x82 0x80 0x97 0x21 0x0 0x0 0x93 0x81 0x41 0x33 0x13 0x85 0x81 0x81 ] MessageSize = Response_Data Prefetch = No ReadX = 0 Acks = 0 ]
  67000: system.ruby.dir_cntrl2.responseFromDir: Enqueue arrival_time: 67500, Message: [ResponseMsg: addr = [0x80, line 0x80] Type = DATA Sender = Directory-2 Destination = [NetDest (17)  - 1 0 0 0  -  -  - 0 0 0 0  -  -  -  -  -  -  -  -  -  -  -  -  - ] DataBlk = [ 0x60 0x4 0x0 0x0 0x0 0x0 0x0 0x0 0x60 0x14 0x1 0x0 0x0 0x0 0x0 0x0 0x60 0x14 0x1 0x0 0x0 0x0 0x0 0x0 0xa0 0x7 0x0 0x0 0x0 0x0 0x0 0x0 0xd8 0x7 0x0 0x0 0x0 0x0 0x0 0x0 0x0 0x10 0x0 0x0 0x0 0x0 0x0 0x0 0x1 0x45 0x82 0x80 0x97 0x21 0x0 0x0 0x93 0x81 0x41 0x33 0x13 0x85 0x81 0x81 ] Dirty = 0 MessageSize = Response_Data ]
  67000: system.ruby.dir_cntrl2: executing l_popMemQueue
  67000: system.ruby.dir_cntrl2.responseFromMemory: Popping
  67000: system.ruby.dir_cntrl2: next_state: M
  67000: system.ruby.dir_cntrl2.directory: Looking up address: 0x80
  67000: system.ruby.dir_cntrl2.directory: Looking up address: 0x80
  67000: system.ruby.dir_cntrl2.directory: Looking up address: 0x80
  67000: system.ruby.dir_cntrl2.directory: Looking up address: 0x80
  67500: PerfectSwitch-2: incoming: 1
  67500: PerfectSwitch-2: Message: [ResponseMsg: addr = [0x80, line 0x80] Type = DATA Sender = Directory-2 Destination = [NetDest (17)  - 1 0 0 0  -  -  - 0 0 0 0  -  -  -  -  -  -  -  -  -  -  -  -  - ] DataBlk = [ 0x60 0x4 0x0 0x0 0x0 0x0 0x0 0x0 0x60 0x14 0x1 0x0 0x0 0x0 0x0 0x0 0x60 0x14 0x1 0x0 0x0 0x0 0x0 0x0 0xa0 0x7 0x0 0x0 0x0 0x0 0x0 0x0 0xd8 0x7 0x0 0x0 0x0 0x0 0x0 0x0 0x0 0x10 0x0 0x0 0x0 0x0 0x0 0x0 0x1 0x45 0x82 0x80 0x97 0x21 0x0 0x0 0x93 0x81 0x41 0x33 0x13 0x85 0x81 0x81 ] Dirty = 0 MessageSize = Response_Data ]
  67500: PerfectSwitch-2: dst: [NetDest (17)  - 0 0 1 0  -  -  - 0 0 0 0  -  -  -  -  -  -  -  -  -  -  -  -  - ]
  67500: PerfectSwitch-2: dst: [NetDest (17)  - 0 0 0 0  -  -  - 0 0 1 0  -  -  -  -  -  -  -  -  -  -  -  -  - ]
  67500: PerfectSwitch-2: dst: [NetDest (17)  - 1 1 0 0  -  -  - 1 1 0 0  -  -  -  -  -  -  -  -  -  -  -  -  - ]
  67500: PerfectSwitch-2: dst: [NetDest (17)  - 0 1 0 1  -  -  - 0 1 0 1  -  -  -  -  -  -  -  -  -  -  -  -  - ]
  67500: PerfectSwitch-2: Checking if node is blocked ...outgoing: 2, vnet: 4, enough: 1
  67500: system.ruby.dir_cntrl2.responseFromDir: Popping
  67500: PerfectSwitch-2: Enqueuing net msg from inport[1][4] to outport [2][4].
  67500: system.ruby.network.routers2.port_buffers12: Enqueue arrival_time: 68000, Message: [ResponseMsg: addr = [0x80, line 0x80] Type = DATA Sender = Directory-2 Destination = [NetDest (17)  - 1 0 0 0  -  -  - 0 0 0 0  -  -  -  -  -  -  -  -  -  -  -  -  - ] DataBlk = [ 0x60 0x4 0x0 0x0 0x0 0x0 0x0 0x0 0x60 0x14 0x1 0x0 0x0 0x0 0x0 0x0 0x60 0x14 0x1 0x0 0x0 0x0 0x0 0x0 0xa0 0x7 0x0 0x0 0x0 0x0 0x0 0x0 0xd8 0x7 0x0 0x0 0x0 0x0 0x0 0x0 0x0 0x10 0x0 0x0 0x0 0x0 0x0 0x0 0x1 0x45 0x82 0x80 0x97 0x21 0x0 0x0 0x93 0x81 0x41 0x33 0x13 0x85 0x81 0x81 ] Dirty = 0 MessageSize = Response_Data ]
  68000: Throttle-2: throttle: 2 my bw 16000 bw spent enqueueing net msg 72000 time: 136.
  68000: system.ruby.network.routers2.port_buffers12: Popping
  68000: system.ruby.network.int_link_buffers24: Enqueue arrival_time: 68500, Message: [ResponseMsg: addr = [0x80, line 0x80] Type = DATA Sender = Directory-2 Destination = [NetDest (17)  - 1 0 0 0  -  -  - 0 0 0 0  -  -  -  -  -  -  -  -  -  -  -  -  - ] DataBlk = [ 0x60 0x4 0x0 0x0 0x0 0x0 0x0 0x0 0x60 0x14 0x1 0x0 0x0 0x0 0x0 0x0 0x60 0x14 0x1 0x0 0x0 0x0 0x0 0x0 0xa0 0x7 0x0 0x0 0x0 0x0 0x0 0x0 0xd8 0x7 0x0 0x0 0x0 0x0 0x0 0x0 0x0 0x10 0x0 0x0 0x0 0x0 0x0 0x0 0x1 0x45 0x82 0x80 0x97 0x21 0x0 0x0 0x93 0x81 0x41 0x33 0x13 0x85 0x81 0x81 ] Dirty = 0 MessageSize = Response_Data ]
  68000: Throttle-2: [MessageBuffer:  consumer-yes [ 0x3d69df0 ]] system.ruby.network.int_link_buffers24
  68000: Throttle-2: [2 bw: 16000] scheduled again
  68500: Throttle-2: [2 bw: 16000] scheduled again
  68500: PerfectSwitch-0: incoming: 3
  68500: PerfectSwitch-0: Message: [ResponseMsg: addr = [0x80, line 0x80] Type = DATA Sender = Directory-2 Destination = [NetDest (17)  - 1 0 0 0  -  -  - 0 0 0 0  -  -  -  -  -  -  -  -  -  -  -  -  - ] DataBlk = [ 0x60 0x4 0x0 0x0 0x0 0x0 0x0 0x0 0x60 0x14 0x1 0x0 0x0 0x0 0x0 0x0 0x60 0x14 0x1 0x0 0x0 0x0 0x0 0x0 0xa0 0x7 0x0 0x0 0x0 0x0 0x0 0x0 0xd8 0x7 0x0 0x0 0x0 0x0 0x0 0x0 0x0 0x10 0x0 0x0 0x0 0x0 0x0 0x0 0x1 0x45 0x82 0x80 0x97 0x21 0x0 0x0 0x93 0x81 0x41 0x33 0x13 0x85 0x81 0x81 ] Dirty = 0 MessageSize = Response_Data ]
  68500: PerfectSwitch-0: dst: [NetDest (17)  - 1 0 0 0  -  -  - 0 0 0 0  -  -  -  -  -  -  -  -  -  -  -  -  - ]
  68500: PerfectSwitch-0: dst: [NetDest (17)  - 0 0 0 0  -  -  - 1 0 0 0  -  -  -  -  -  -  -  -  -  -  -  -  - ]
  68500: PerfectSwitch-0: dst: [NetDest (17)  - 0 1 0 1  -  -  - 0 1 0 1  -  -  -  -  -  -  -  -  -  -  -  -  - ]
  68500: PerfectSwitch-0: dst: [NetDest (17)  - 0 0 1 1  -  -  - 0 0 1 1  -  -  -  -  -  -  -  -  -  -  -  -  - ]
  68500: PerfectSwitch-0: Checking if node is blocked ...outgoing: 0, vnet: 4, enough: 1
  68500: system.ruby.network.int_link_buffers24: Popping
  68500: PerfectSwitch-0: Enqueuing net msg from inport[3][4] to outport [0][4].
  68500: system.ruby.network.routers0.port_buffers04: Enqueue arrival_time: 69000, Message: [ResponseMsg: addr = [0x80, line 0x80] Type = DATA Sender = Directory-2 Destination = [NetDest (17)  - 1 0 0 0  -  -  - 0 0 0 0  -  -  -  -  -  -  -  -  -  -  -  -  - ] DataBlk = [ 0x60 0x4 0x0 0x0 0x0 0x0 0x0 0x0 0x60 0x14 0x1 0x0 0x0 0x0 0x0 0x0 0x60 0x14 0x1 0x0 0x0 0x0 0x0 0x0 0xa0 0x7 0x0 0x0 0x0 0x0 0x0 0x0 0xd8 0x7 0x0 0x0 0x0 0x0 0x0 0x0 0x0 0x10 0x0 0x0 0x0 0x0 0x0 0x0 0x1 0x45 0x82 0x80 0x97 0x21 0x0 0x0 0x93 0x81 0x41 0x33 0x13 0x85 0x81 0x81 ] Dirty = 0 MessageSize = Response_Data ]
  69000: Throttle-0: throttle: 0 my bw 16000 bw spent enqueueing net msg 72000 time: 138.
  69000: system.ruby.network.routers0.port_buffers04: Popping
  69000: system.ruby.l1_cntrl0.responseToCache: Enqueue arrival_time: 69500, Message: [ResponseMsg: addr = [0x80, line 0x80] Type = DATA Sender = Directory-2 Destination = [NetDest (17)  - 1 0 0 0  -  -  - 0 0 0 0  -  -  -  -  -  -  -  -  -  -  -  -  - ] DataBlk = [ 0x60 0x4 0x0 0x0 0x0 0x0 0x0 0x0 0x60 0x14 0x1 0x0 0x0 0x0 0x0 0x0 0x60 0x14 0x1 0x0 0x0 0x0 0x0 0x0 0xa0 0x7 0x0 0x0 0x0 0x0 0x0 0x0 0xd8 0x7 0x0 0x0 0x0 0x0 0x0 0x0 0x0 0x10 0x0 0x0 0x0 0x0 0x0 0x0 0x1 0x45 0x82 0x80 0x97 0x21 0x0 0x0 0x93 0x81 0x41 0x33 0x13 0x85 0x81 0x81 ] Dirty = 0 MessageSize = Response_Data ]
  69000: Throttle-0: [MessageBuffer:  consumer-yes [ 0x3d69df0 ]] system.ruby.l1_cntrl0.responseToCache
  69000: Throttle-0: [0 bw: 16000] scheduled again
  69000: Throttle-2: [2 bw: 16000] scheduled again
  69500: Throttle-2: [2 bw: 16000] scheduled again
  69500: Throttle-0: [0 bw: 16000] scheduled again
  69500: system.ruby.l1_cntrl0.responseToCache: Peeking at head of queue.
  69500: system.ruby.l1_cntrl0.responseToCache: Message: [ResponseMsg: addr = [0x80, line 0x80] Type = DATA Sender = Directory-2 Destination = [NetDest (17)  - 1 0 0 0  -  -  - 0 0 0 0  -  -  -  -  -  -  -  -  -  -  -  -  - ] DataBlk = [ 0x60 0x4 0x0 0x0 0x0 0x0 0x0 0x0 0x60 0x14 0x1 0x0 0x0 0x0 0x0 0x0 0x60 0x14 0x1 0x0 0x0 0x0 0x0 0x0 0xa0 0x7 0x0 0x0 0x0 0x0 0x0 0x0 0xd8 0x7 0x0 0x0 0x0 0x0 0x0 0x0 0x0 0x10 0x0 0x0 0x0 0x0 0x0 0x0 0x1 0x45 0x82 0x80 0x97 0x21 0x0 0x0 0x93 0x81 0x41 0x33 0x13 0x85 0x81 0x81 ] Dirty = 0 MessageSize = Response_Data ]
  69500: system.ruby.l1_cntrl0: [L1Cache_Controller 0], Time: 139, state: IS, event: Data, addr: 0x80
  69500: system.ruby.l1_cntrl0: executing u_writeDataToCache
  69500: system.ruby.l1_cntrl0.responseToCache: Peeking at head of queue.
  69500: system.ruby.l1_cntrl0.responseToCache: Message: [ResponseMsg: addr = [0x80, line 0x80] Type = DATA Sender = Directory-2 Destination = [NetDest (17)  - 1 0 0 0  -  -  - 0 0 0 0  -  -  -  -  -  -  -  -  -  -  -  -  - ] DataBlk = [ 0x60 0x4 0x0 0x0 0x0 0x0 0x0 0x0 0x60 0x14 0x1 0x0 0x0 0x0 0x0 0x0 0x60 0x14 0x1 0x0 0x0 0x0 0x0 0x0 0xa0 0x7 0x0 0x0 0x0 0x0 0x0 0x0 0xd8 0x7 0x0 0x0 0x0 0x0 0x0 0x0 0x0 0x10 0x0 0x0 0x0 0x0 0x0 0x0 0x1 0x45 0x82 0x80 0x97 0x21 0x0 0x0 0x93 0x81 0x41 0x33 0x13 0x85 0x81 0x81 ] Dirty = 0 MessageSize = Response_Data ]
  69500: system.ruby.l1_cntrl0: executing rx_load_hit
  69500: system.ruby.l1_cntrl0.responseToCache: Peeking at head of queue.
  69500: system.ruby.l1_cntrl0.responseToCache: Message: [ResponseMsg: addr = [0x80, line 0x80] Type = DATA Sender = Directory-2 Destination = [NetDest (17)  - 1 0 0 0  -  -  - 0 0 0 0  -  -  -  -  -  -  -  -  -  -  -  -  - ] DataBlk = [ 0x60 0x4 0x0 0x0 0x0 0x0 0x0 0x0 0x60 0x14 0x1 0x0 0x0 0x0 0x0 0x0 0x60 0x14 0x1 0x0 0x0 0x0 0x0 0x0 0xa0 0x7 0x0 0x0 0x0 0x0 0x0 0x0 0xd8 0x7 0x0 0x0 0x0 0x0 0x0 0x0 0x0 0x10 0x0 0x0 0x0 0x0 0x0 0x0 0x1 0x45 0x82 0x80 0x97 0x21 0x0 0x0 0x93 0x81 0x41 0x33 0x13 0x85 0x81 0x81 ] Dirty = 0 MessageSize = Response_Data ]
  69500: system.ruby.l1_cntrl0: MI_example-cache.sm:367: [ 0x60 0x4 0x0 0x0 0x0 0x0 0x0 0x0 0x60 0x14 0x1 0x0 0x0 0x0 0x0 0x0 0x60 0x14 0x1 0x0 0x0 0x0 0x0 0x0 0xa0 0x7 0x0 0x0 0x0 0x0 0x0 0x0 0xd8 0x7 0x0 0x0 0x0 0x0 0x0 0x0 0x0 0x10 0x0 0x0 0x0 0x0 0x0 0x0 0x1 0x45 0x82 0x80 0x97 0x21 0x0 0x0 0x93 0x81 0x41 0x33 0x13 0x85 0x81 0x81 ]
  69500: system.ruby.l1_cntrl0.sequencer: read data [ 0x60 0x4 0x0 0x0 0x0 0x0 0x0 0x0 0x60 0x14 0x1 0x0 0x0 0x0 0x0 0x0 0x60 0x14 0x1 0x0 0x0 0x0 0x0 0x0 0xa0 0x7 0x0 0x0 0x0 0x0 0x0 0x0 0xd8 0x7 0x0 0x0 0x0 0x0 0x0 0x0 0x0 0x10 0x0 0x0 0x0 0x0 0x0 0x0 0x1 0x45 0x82 0x80 0x97 0x21 0x0 0x0 0x93 0x81 0x41 0x33 0x13 0x85 0x81 0x81 ]
  69500: system.ruby.l1_cntrl0.sequencer: Hit callback for ReadReq 0x80
  69500: system.ruby.l1_cntrl0.sequencer.slave0: Hit callback needs response 1
  69500: system.ruby.l1_cntrl0.sequencer.slave0: Sending packet back over port
  69500: system.ruby.l1_cntrl0.sequencer.slave0: Hit callback done!
  69500: system.ruby.l1_cntrl0: executing w_deallocateTBE
  69500: system.ruby.l1_cntrl0: executing n_popResponseQueue
  69500: system.ruby.l1_cntrl0.responseToCache: Popping
  69500: system.ruby.l1_cntrl0: next_state: M
  70000: Throttle-0: [0 bw: 16000] scheduled again
  70000: Throttle-2: [2 bw: 16000] not scheduled again
  70500: Throttle-0: [0 bw: 16000] scheduled again
  71000: Throttle-0: [0 bw: 16000] not scheduled again
  71000: system.ruby.l1_cntrl0.sequencer.slave0: Timing request for address 0xc0 on port 0
  71000: system.ruby.l1_cntrl0.mandatoryQueue: Enqueue arrival_time: 71500, Message: [RubyRequest: LineAddress = 0xc0 PhysicalAddress = 0xc0 Type = IFETCH ProgramCounter = 0x100c0 AccessMode = Supervisor Size = 64 Prefetch = No ]
  71000: system.ruby.l1_cntrl0.sequencer.slave0: Request ReadReq address 0xc0 issued
  71500: system.ruby.l1_cntrl0.mandatoryQueue: Peeking at head of queue.
  71500: system.ruby.l1_cntrl0.mandatoryQueue: Message: [RubyRequest: LineAddress = 0xc0 PhysicalAddress = 0xc0 Type = IFETCH ProgramCounter = 0x100c0 AccessMode = Supervisor Size = 64 Prefetch = No ]
  71500: system.ruby.l1_cntrl0: [L1Cache_Controller 0], Time: 143, state: I, event: Ifetch, addr: 0xc0
  71500: system.ruby.l1_cntrl0: executing v_allocateTBE
  71500: system.ruby.l1_cntrl0: executing i_allocateL1CacheBlock
  71500: system.ruby.l1_cntrl0.cacheMemory: No tag match for address: 0xc0
  71500: system.ruby.l1_cntrl0.cacheMemory: address: 0xc0
  71500: system.ruby.l1_cntrl0.cacheMemory: Allocate clearing lock for addr: c0
  71500: system.ruby.l1_cntrl0: executing a_issueRequest
  71500: system.ruby.l1_cntrl0.requestFromCache: Enqueue arrival_time: 72500, Message: [RequestMsg: addr = [0xc0, line 0xc0] Type = GETX Requestor = L1Cache-0 Destination = [NetDest (17)  - 0 0 0 0  -  -  - 0 0 0 1  -  -  -  -  -  -  -  -  -  -  -  -  - ] DataBlk = [ 0x0 0x0 0x0 0x0 0x0 0x0 0x0 0x0 0x0 0x0 0x0 0x0 0x0 0x0 0x0 0x0 0x0 0x0 0x0 0x0 0x0 0x0 0x0 0x0 0x0 0x0 0x0 0x0 0x0 0x0 0x0 0x0 0x0 0x0 0x0 0x0 0x0 0x0 0x0 0x0 0x0 0x0 0x0 0x0 0x0 0x0 0x0 0x0 0x0 0x0 0x0 0x0 0x0 0x0 0x0 0x0 0x0 0x0 0x0 0x0 0x0 0x0 0x0 0x0 ] MessageSize = Control ]
  71500: system.ruby.l1_cntrl0: executing p_profileMiss
  71500: system.ruby.l1_cntrl0: executing m_popMandatoryQueue
  71500: system.ruby.l1_cntrl0.mandatoryQueue: Popping
  71500: system.ruby.l1_cntrl0: next_state: IS
  72500: PerfectSwitch-0: incoming: 0
  72500: PerfectSwitch-0: Message: [RequestMsg: addr = [0xc0, line 0xc0] Type = GETX Requestor = L1Cache-0 Destination = [NetDest (17)  - 0 0 0 0  -  -  - 0 0 0 1  -  -  -  -  -  -  -  -  -  -  -  -  - ] DataBlk = [ 0x0 0x0 0x0 0x0 0x0 0x0 0x0 0x0 0x0 0x0 0x0 0x0 0x0 0x0 0x0 0x0 0x0 0x0 0x0 0x0 0x0 0x0 0x0 0x0 0x0 0x0 0x0 0x0 0x0 0x0 0x0 0x0 0x0 0x0 0x0 0x0 0x0 0x0 0x0 0x0 0x0 0x0 0x0 0x0 0x0 0x0 0x0 0x0 0x0 0x0 0x0 0x0 0x0 0x0 0x0 0x0 0x0 0x0 0x0 0x0 0x0 0x0 0x0 0x0 ] MessageSize = Control ]
  72500: PerfectSwitch-0: dst: [NetDest (17)  - 1 0 0 0  -  -  - 0 0 0 0  -  -  -  -  -  -  -  -  -  -  -  -  - ]
  72500: PerfectSwitch-0: dst: [NetDest (17)  - 0 0 0 0  -  -  - 1 0 0 0  -  -  -  -  -  -  -  -  -  -  -  -  - ]
  72500: PerfectSwitch-0: dst: [NetDest (17)  - 0 1 0 1  -  -  - 0 1 0 1  -  -  -  -  -  -  -  -  -  -  -  -  - ]
  72500: PerfectSwitch-0: dst: [NetDest (17)  - 0 0 1 1  -  -  - 0 0 1 1  -  -  -  -  -  -  -  -  -  -  -  -  - ]
  72500: PerfectSwitch-0: Checking if node is blocked ...outgoing: 2, vnet: 2, enough: 1
  72500: system.ruby.l1_cntrl0.requestFromCache: Popping
  72500: PerfectSwitch-0: Enqueuing net msg from inport[0][2] to outport [2][2].
  72500: system.ruby.network.routers0.port_buffers10: Enqueue arrival_time: 73000, Message: [RequestMsg: addr = [0xc0, line 0xc0] Type = GETX Requestor = L1Cache-0 Destination = [NetDest (17)  - 0 0 0 0  -  -  - 0 0 0 1  -  -  -  -  -  -  -  -  -  -  -  -  - ] DataBlk = [ 0x0 0x0 0x0 0x0 0x0 0x0 0x0 0x0 0x0 0x0 0x0 0x0 0x0 0x0 0x0 0x0 0x0 0x0 0x0 0x0 0x0 0x0 0x0 0x0 0x0 0x0 0x0 0x0 0x0 0x0 0x0 0x0 0x0 0x0 0x0 0x0 0x0 0x0 0x0 0x0 0x0 0x0 0x0 0x0 0x0 0x0 0x0 0x0 0x0 0x0 0x0 0x0 0x0 0x0 0x0 0x0 0x0 0x0 0x0 0x0 0x0 0x0 0x0 0x0 ] MessageSize = Control ]
  73000: Throttle-0: throttle: 2 my bw 16000 bw spent enqueueing net msg 8000 time: 146.
  73000: system.ruby.network.routers0.port_buffers10: Popping
  73000: system.ruby.network.int_link_buffers02: Enqueue arrival_time: 73500, Message: [RequestMsg: addr = [0xc0, line 0xc0] Type = GETX Requestor = L1Cache-0 Destination = [NetDest (17)  - 0 0 0 0  -  -  - 0 0 0 1  -  -  -  -  -  -  -  -  -  -  -  -  - ] DataBlk = [ 0x0 0x0 0x0 0x0 0x0 0x0 0x0 0x0 0x0 0x0 0x0 0x0 0x0 0x0 0x0 0x0 0x0 0x0 0x0 0x0 0x0 0x0 0x0 0x0 0x0 0x0 0x0 0x0 0x0 0x0 0x0 0x0 0x0 0x0 0x0 0x0 0x0 0x0 0x0 0x0 0x0 0x0 0x0 0x0 0x0 0x0 0x0 0x0 0x0 0x0 0x0 0x0 0x0 0x0 0x0 0x0 0x0 0x0 0x0 0x0 0x0 0x0 0x0 0x0 ] MessageSize = Control ]
  73000: Throttle-0: [MessageBuffer:  consumer-yes [ 0x3d69d60 ]] system.ruby.network.int_link_buffers02
  73000: Throttle-0: [2 bw: 16000] not scheduled again
  73500: PerfectSwitch-1: incoming: 2
  73500: PerfectSwitch-1: Message: [RequestMsg: addr = [0xc0, line 0xc0] Type = GETX Requestor = L1Cache-0 Destination = [NetDest (17)  - 0 0 0 0  -  -  - 0 0 0 1  -  -  -  -  -  -  -  -  -  -  -  -  - ] DataBlk = [ 0x0 0x0 0x0 0x0 0x0 0x0 0x0 0x0 0x0 0x0 0x0 0x0 0x0 0x0 0x0 0x0 0x0 0x0 0x0 0x0 0x0 0x0 0x0 0x0 0x0 0x0 0x0 0x0 0x0 0x0 0x0 0x0 0x0 0x0 0x0 0x0 0x0 0x0 0x0 0x0 0x0 0x0 0x0 0x0 0x0 0x0 0x0 0x0 0x0 0x0 0x0 0x0 0x0 0x0 0x0 0x0 0x0 0x0 0x0 0x0 0x0 0x0 0x0 0x0 ] MessageSize = Control ]
  73500: PerfectSwitch-1: dst: [NetDest (17)  - 0 1 0 0  -  -  - 0 0 0 0  -  -  -  -  -  -  -  -  -  -  -  -  - ]
  73500: PerfectSwitch-1: dst: [NetDest (17)  - 0 0 0 0  -  -  - 0 1 0 0  -  -  -  -  -  -  -  -  -  -  -  -  - ]
  73500: PerfectSwitch-1: dst: [NetDest (17)  - 1 0 1 0  -  -  - 1 0 1 0  -  -  -  -  -  -  -  -  -  -  -  -  - ]
  73500: PerfectSwitch-1: dst: [NetDest (17)  - 0 0 1 1  -  -  - 0 0 1 1  -  -  -  -  -  -  -  -  -  -  -  -  - ]
  73500: PerfectSwitch-1: Checking if node is blocked ...outgoing: 3, vnet: 2, enough: 1
  73500: system.ruby.network.int_link_buffers02: Popping
  73500: PerfectSwitch-1: Enqueuing net msg from inport[2][2] to outport [3][2].
  73500: system.ruby.network.routers1.port_buffers15: Enqueue arrival_time: 74000, Message: [RequestMsg: addr = [0xc0, line 0xc0] Type = GETX Requestor = L1Cache-0 Destination = [NetDest (17)  - 0 0 0 0  -  -  - 0 0 0 1  -  -  -  -  -  -  -  -  -  -  -  -  - ] DataBlk = [ 0x0 0x0 0x0 0x0 0x0 0x0 0x0 0x0 0x0 0x0 0x0 0x0 0x0 0x0 0x0 0x0 0x0 0x0 0x0 0x0 0x0 0x0 0x0 0x0 0x0 0x0 0x0 0x0 0x0 0x0 0x0 0x0 0x0 0x0 0x0 0x0 0x0 0x0 0x0 0x0 0x0 0x0 0x0 0x0 0x0 0x0 0x0 0x0 0x0 0x0 0x0 0x0 0x0 0x0 0x0 0x0 0x0 0x0 0x0 0x0 0x0 0x0 0x0 0x0 ] MessageSize = Control ]
  74000: Throttle-1: throttle: 3 my bw 16000 bw spent enqueueing net msg 8000 time: 148.
  74000: system.ruby.network.routers1.port_buffers15: Popping
  74000: system.ruby.network.int_link_buffers17: Enqueue arrival_time: 74500, Message: [RequestMsg: addr = [0xc0, line 0xc0] Type = GETX Requestor = L1Cache-0 Destination = [NetDest (17)  - 0 0 0 0  -  -  - 0 0 0 1  -  -  -  -  -  -  -  -  -  -  -  -  - ] DataBlk = [ 0x0 0x0 0x0 0x0 0x0 0x0 0x0 0x0 0x0 0x0 0x0 0x0 0x0 0x0 0x0 0x0 0x0 0x0 0x0 0x0 0x0 0x0 0x0 0x0 0x0 0x0 0x0 0x0 0x0 0x0 0x0 0x0 0x0 0x0 0x0 0x0 0x0 0x0 0x0 0x0 0x0 0x0 0x0 0x0 0x0 0x0 0x0 0x0 0x0 0x0 0x0 0x0 0x0 0x0 0x0 0x0 0x0 0x0 0x0 0x0 0x0 0x0 0x0 0x0 ] MessageSize = Control ]
  74000: Throttle-1: [MessageBuffer:  consumer-yes [ 0x3d69d60 ]] system.ruby.network.int_link_buffers17
  74000: Throttle-1: [3 bw: 16000] not scheduled again
  74500: PerfectSwitch-3: incoming: 2
[...]
1452500: Throttle-1: [MessageBuffer:  consumer-yes [ 0x3d69e80 ]] system.ruby.network.int_link_buffers14
1452500: Throttle-1: [2 bw: 16000] scheduled again
1452500: Throttle-3: [2 bw: 16000] scheduled again
1453000: Throttle-3: [2 bw: 16000] scheduled again
1453000: Throttle-1: [2 bw: 16000] scheduled again
1453000: PerfectSwitch-0: incoming: 2
1453000: PerfectSwitch-0: Message: [ResponseMsg: addr = [0x14c0, line 0x14c0] Type = DATA Sender = Directory-3 Destination = [NetDest (17)  - 1 0 0 0  -  -  - 0 0 0 0  -  -  -  -  -  -  -  -  -  -  -  -  - ] DataBlk = [ 0x0 0x0 0x0 0x0 0x0 0x0 0x0 0x0 0x0 0x0 0x0 0x0 0x0 0x0 0x0 0x0 0x0 0x0 0x0 0x0 0x0 0x0 0x0 0x0 0x0 0x0 0x0 0x0 0x0 0x0 0x0 0x0 0x0 0x0 0x0 0x0 0x0 0x0 0x0 0x0 0x0 0x0 0x0 0x0 0x0 0x0 0x0 0x0 0x0 0x0 0x0 0x0 0x0 0x0 0x0 0x0 0x0 0x0 0x0 0x0 0x0 0x0 0x0 0x0 ] Dirty = 0 MessageSize = Response_Data ]
1453000: PerfectSwitch-0: dst: [NetDest (17)  - 1 0 0 0  -  -  - 0 0 0 0  -  -  -  -  -  -  -  -  -  -  -  -  - ]
1453000: PerfectSwitch-0: dst: [NetDest (17)  - 0 0 0 0  -  -  - 1 0 0 0  -  -  -  -  -  -  -  -  -  -  -  -  - ]
1453000: PerfectSwitch-0: dst: [NetDest (17)  - 0 1 0 1  -  -  - 0 1 0 1  -  -  -  -  -  -  -  -  -  -  -  -  - ]
1453000: PerfectSwitch-0: dst: [NetDest (17)  - 0 0 1 1  -  -  - 0 0 1 1  -  -  -  -  -  -  -  -  -  -  -  -  - ]
1453000: PerfectSwitch-0: Checking if node is blocked ...outgoing: 0, vnet: 4, enough: 1
1453000: system.ruby.network.int_link_buffers14: Popping
1453000: PerfectSwitch-0: Enqueuing net msg from inport[2][4] to outport [0][4].
1453000: system.ruby.network.routers0.port_buffers04: Enqueue arrival_time: 1453500, Message: [ResponseMsg: addr = [0x14c0, line 0x14c0] Type = DATA Sender = Directory-3 Destination = [NetDest (17)  - 1 0 0 0  -  -  - 0 0 0 0  -  -  -  -  -  -  -  -  -  -  -  -  - ] DataBlk = [ 0x0 0x0 0x0 0x0 0x0 0x0 0x0 0x0 0x0 0x0 0x0 0x0 0x0 0x0 0x0 0x0 0x0 0x0 0x0 0x0 0x0 0x0 0x0 0x0 0x0 0x0 0x0 0x0 0x0 0x0 0x0 0x0 0x0 0x0 0x0 0x0 0x0 0x0 0x0 0x0 0x0 0x0 0x0 0x0 0x0 0x0 0x0 0x0 0x0 0x0 0x0 0x0 0x0 0x0 0x0 0x0 0x0 0x0 0x0 0x0 0x0 0x0 0x0 0x0 ] Dirty = 0 MessageSize = Response_Data ]
1453500: Throttle-0: throttle: 0 my bw 16000 bw spent enqueueing net msg 72000 time: 2907.
1453500: system.ruby.network.routers0.port_buffers04: Popping
1453500: system.ruby.l1_cntrl0.responseToCache: Enqueue arrival_time: 1454000, Message: [ResponseMsg: addr = [0x14c0, line 0x14c0] Type = DATA Sender = Directory-3 Destination = [NetDest (17)  - 1 0 0 0  -  -  - 0 0 0 0  -  -  -  -  -  -  -  -  -  -  -  -  - ] DataBlk = [ 0x0 0x0 0x0 0x0 0x0 0x0 0x0 0x0 0x0 0x0 0x0 0x0 0x0 0x0 0x0 0x0 0x0 0x0 0x0 0x0 0x0 0x0 0x0 0x0 0x0 0x0 0x0 0x0 0x0 0x0 0x0 0x0 0x0 0x0 0x0 0x0 0x0 0x0 0x0 0x0 0x0 0x0 0x0 0x0 0x0 0x0 0x0 0x0 0x0 0x0 0x0 0x0 0x0 0x0 0x0 0x0 0x0 0x0 0x0 0x0 0x0 0x0 0x0 0x0 ] Dirty = 0 MessageSize = Response_Data ]
1453500: Throttle-0: [MessageBuffer:  consumer-yes [ 0x3d69e80 ]] system.ruby.l1_cntrl0.responseToCache
1453500: Throttle-0: [0 bw: 16000] scheduled again
1453500: Throttle-1: [2 bw: 16000] scheduled again
1453500: Throttle-3: [2 bw: 16000] not scheduled again
1454000: Throttle-1: [2 bw: 16000] scheduled again
1454000: Throttle-0: [0 bw: 16000] scheduled again
1454000: system.ruby.l1_cntrl0.responseToCache: Peeking at head of queue.
1454000: system.ruby.l1_cntrl0.responseToCache: Message: [ResponseMsg: addr = [0x14c0, line 0x14c0] Type = DATA Sender = Directory-3 Destination = [NetDest (17)  - 1 0 0 0  -  -  - 0 0 0 0  -  -  -  -  -  -  -  -  -  -  -  -  - ] DataBlk = [ 0x0 0x0 0x0 0x0 0x0 0x0 0x0 0x0 0x0 0x0 0x0 0x0 0x0 0x0 0x0 0x0 0x0 0x0 0x0 0x0 0x0 0x0 0x0 0x0 0x0 0x0 0x0 0x0 0x0 0x0 0x0 0x0 0x0 0x0 0x0 0x0 0x0 0x0 0x0 0x0 0x0 0x0 0x0 0x0 0x0 0x0 0x0 0x0 0x0 0x0 0x0 0x0 0x0 0x0 0x0 0x0 0x0 0x0 0x0 0x0 0x0 0x0 0x0 0x0 ] Dirty = 0 MessageSize = Response_Data ]
1454000: system.ruby.l1_cntrl0: [L1Cache_Controller 0], Time: 2908, state: IS, event: Data, addr: 0x14c0
1454000: system.ruby.l1_cntrl0: executing u_writeDataToCache
1454000: system.ruby.l1_cntrl0.responseToCache: Peeking at head of queue.
1454000: system.ruby.l1_cntrl0.responseToCache: Message: [ResponseMsg: addr = [0x14c0, line 0x14c0] Type = DATA Sender = Directory-3 Destination = [NetDest (17)  - 1 0 0 0  -  -  - 0 0 0 0  -  -  -  -  -  -  -  -  -  -  -  -  - ] DataBlk = [ 0x0 0x0 0x0 0x0 0x0 0x0 0x0 0x0 0x0 0x0 0x0 0x0 0x0 0x0 0x0 0x0 0x0 0x0 0x0 0x0 0x0 0x0 0x0 0x0 0x0 0x0 0x0 0x0 0x0 0x0 0x0 0x0 0x0 0x0 0x0 0x0 0x0 0x0 0x0 0x0 0x0 0x0 0x0 0x0 0x0 0x0 0x0 0x0 0x0 0x0 0x0 0x0 0x0 0x0 0x0 0x0 0x0 0x0 0x0 0x0 0x0 0x0 0x0 0x0 ] Dirty = 0 MessageSize = Response_Data ]
1454000: system.ruby.l1_cntrl0: executing rx_load_hit
1454000: system.ruby.l1_cntrl0.responseToCache: Peeking at head of queue.
1454000: system.ruby.l1_cntrl0.responseToCache: Message: [ResponseMsg: addr = [0x14c0, line 0x14c0] Type = DATA Sender = Directory-3 Destination = [NetDest (17)  - 1 0 0 0  -  -  - 0 0 0 0  -  -  -  -  -  -  -  -  -  -  -  -  - ] DataBlk = [ 0x0 0x0 0x0 0x0 0x0 0x0 0x0 0x0 0x0 0x0 0x0 0x0 0x0 0x0 0x0 0x0 0x0 0x0 0x0 0x0 0x0 0x0 0x0 0x0 0x0 0x0 0x0 0x0 0x0 0x0 0x0 0x0 0x0 0x0 0x0 0x0 0x0 0x0 0x0 0x0 0x0 0x0 0x0 0x0 0x0 0x0 0x0 0x0 0x0 0x0 0x0 0x0 0x0 0x0 0x0 0x0 0x0 0x0 0x0 0x0 0x0 0x0 0x0 0x0 ] Dirty = 0 MessageSize = Response_Data ]
1454000: system.ruby.l1_cntrl0: MI_example-cache.sm:367: [ 0x0 0x0 0x0 0x0 0x0 0x0 0x0 0x0 0x0 0x0 0x0 0x0 0x0 0x0 0x0 0x0 0x0 0x0 0x0 0x0 0x0 0x0 0x0 0x0 0x0 0x0 0x0 0x0 0x0 0x0 0x0 0x0 0x0 0x0 0x0 0x0 0x0 0x0 0x0 0x0 0x0 0x0 0x0 0x0 0x0 0x0 0x0 0x0 0x0 0x0 0x0 0x0 0x0 0x0 0x0 0x0 0x0 0x0 0x0 0x0 0x0 0x0 0x0 0x0 ]
1454000: system.ruby.l1_cntrl0.sequencer: read data [ 0x0 0x0 0x0 0x0 0x0 0x0 0x0 0x0 0x0 0x0 0x0 0x0 0x0 0x0 0x0 0x0 0x0 0x0 0x0 0x0 0x0 0x0 0x0 0x0 0x0 0x0 0x0 0x0 0x0 0x0 0x0 0x0 0x0 0x0 0x0 0x0 0x0 0x0 0x0 0x0 0x0 0x0 0x0 0x0 0x0 0x0 0x0 0x0 0x0 0x0 0x0 0x0 0x0 0x0 0x0 0x0 0x0 0x0 0x0 0x0 0x0 0x0 0x0 0x0 ]
1454000: system.ruby.l1_cntrl0.sequencer: Hit callback for ReadReq 0x14f8
1454000: system.ruby.l1_cntrl0.sequencer.slave1: Hit callback needs response 1
1454000: system.ruby.l1_cntrl0.sequencer.slave1: Sending packet back over port
1454000: system.ruby.l1_cntrl0.sequencer.slave1: Hit callback done!
1454000: system.ruby.l1_cntrl0: executing w_deallocateTBE
1454000: system.ruby.l1_cntrl0: executing n_popResponseQueue
1454000: system.ruby.l1_cntrl0.responseToCache: Popping
1454000: system.ruby.l1_cntrl0: next_state: M
1454500: Throttle-0: [0 bw: 16000] scheduled again
1454500: Throttle-1: [2 bw: 16000] not scheduled again
1455000: Throttle-0: [0 bw: 16000] scheduled again
1455500: Throttle-0: [0 bw: 16000] not scheduled again
1455500: system.ruby.l1_cntrl0.sequencer.slave0: Timing request for address 0x1c0 on port 0
1455500: system.ruby.l1_cntrl0.mandatoryQueue: Enqueue arrival_time: 1456000, Message: [RubyRequest: LineAddress = 0x1c0 PhysicalAddress = 0x1c0 Type = IFETCH ProgramCounter = 0x101c6 AccessMode = Supervisor Size = 64 Prefetch = No ]
1455500: system.ruby.l1_cntrl0.sequencer.slave0: Request ReadReq address 0x1c0 issued
1456000: system.ruby.l1_cntrl0.mandatoryQueue: Peeking at head of queue.
1456000: system.ruby.l1_cntrl0.mandatoryQueue: Message: [RubyRequest: LineAddress = 0x1c0 PhysicalAddress = 0x1c0 Type = IFETCH ProgramCounter = 0x101c6 AccessMode = Supervisor Size = 64 Prefetch = No ]
1456000: system.ruby.l1_cntrl0: [L1Cache_Controller 0], Time: 2912, state: M, event: Ifetch, addr: 0x1c0
1456000: system.ruby.l1_cntrl0: executing r_load_hit
1456000: system.ruby.l1_cntrl0: MI_example-cache.sm:359: [ 0x3c 0x6d 0x91 0xc3 0x82 0x97 0x22 0x85 0xef 0x0 0x60 0x26 0x1 0x11 0xc5 0x67 0x22 0xe8 0x45 0x64 0x13 0x87 0x87 0x49 0x13 0x4 0x4 0x4a 0x19 0x8c 0x26 0xe4 0x6 0xec 0xd 0x84 0x93 0x84 0x87 0x49 0x19 0xe4 0x42 0x64 0xe2 0x60 0xa2 0x64 0x5 0x61 0x6f 0xf0 0x9f 0xef 0x7d 0x14 0x93 0x17 0x34 0x0 0xa6 0x97 0x9c 0x63 ]
1456000: system.ruby.l1_cntrl0.sequencer: read data [ 0x3c 0x6d 0x91 0xc3 0x82 0x97 0x22 0x85 0xef 0x0 0x60 0x26 0x1 0x11 0xc5 0x67 0x22 0xe8 0x45 0x64 0x13 0x87 0x87 0x49 0x13 0x4 0x4 0x4a 0x19 0x8c 0x26 0xe4 0x6 0xec 0xd 0x84 0x93 0x84 0x87 0x49 0x19 0xe4 0x42 0x64 0xe2 0x60 0xa2 0x64 0x5 0x61 0x6f 0xf0 0x9f 0xef 0x7d 0x14 0x93 0x17 0x34 0x0 0xa6 0x97 0x9c 0x63 ]
1456000: system.ruby.l1_cntrl0.sequencer: Hit callback for ReadReq 0x1c0
1456000: system.ruby.l1_cntrl0.sequencer.slave0: Hit callback needs response 1
1456000: system.ruby.l1_cntrl0.sequencer.slave0: Sending packet back over port
1456000: system.ruby.l1_cntrl0.sequencer.slave0: Hit callback done!
1456000: system.ruby.l1_cntrl0: executing p_profileHit
1456000: system.ruby.l1_cntrl0: executing m_popMandatoryQueue
1456000: system.ruby.l1_cntrl0.mandatoryQueue: Popping
1456000: system.ruby.l1_cntrl0: next_state: M
1457000: system.ruby.l1_cntrl0.sequencer.slave0: Timing request for address 0x200 on port 0
1457000: system.ruby.l1_cntrl0.mandatoryQueue: Enqueue arrival_time: 1457500, Message: [RubyRequest: LineAddress = 0x200 PhysicalAddress = 0x200 Type = IFETCH ProgramCounter = 0x10200 AccessMode = Supervisor Size = 64 Prefetch = No ]
1457000: system.ruby.l1_cntrl0.sequencer.slave0: Request ReadReq address 0x200 issued
1457500: system.ruby.l1_cntrl0.mandatoryQueue: Peeking at head of queue.
1457500: system.ruby.l1_cntrl0.mandatoryQueue: Message: [RubyRequest: LineAddress = 0x200 PhysicalAddress = 0x200 Type = IFETCH ProgramCounter = 0x10200 AccessMode = Supervisor Size = 64 Prefetch = No ]
1457500: system.ruby.l1_cntrl0: [L1Cache_Controller 0], Time: 2915, state: M, event: Ifetch, addr: 0x200
1457500: system.ruby.l1_cntrl0: executing r_load_hit
1457500: system.ruby.l1_cntrl0: MI_example-cache.sm:359: [ 0x82 0x97 0xdd 0xb7 0x1 0x11 0xc5 0x67 0x22 0xe8 0x45 0x64 0x13 0x87 0xc7 0x48 0x13 0x4 0xc4 0x48 0x19 0x8c 0x26 0xe4 0x4a 0xe0 0x6 0xec 0xd 0x84 0x81 0x44 0x13 0x89 0xc7 0x48 0x63 0x97 0x84 0x2 0xef 0xf0 0x3f 0xec 0xc5 0x67 0x45 0x64 0x13 0x87 0x7 0x49 0x13 0x4 0x84 0x49 0x19 0x8c 0xd 0x84 0x81 0x44 0x13 0x89 ]
1457500: system.ruby.l1_cntrl0.sequencer: read data [ 0x82 0x97 0xdd 0xb7 0x1 0x11 0xc5 0x67 0x22 0xe8 0x45 0x64 0x13 0x87 0xc7 0x48 0x13 0x4 0xc4 0x48 0x19 0x8c 0x26 0xe4 0x4a 0xe0 0x6 0xec 0xd 0x84 0x81 0x44 0x13 0x89 0xc7 0x48 0x63 0x97 0x84 0x2 0xef 0xf0 0x3f 0xec 0xc5 0x67 0x45 0x64 0x13 0x87 0x7 0x49 0x13 0x4 0x84 0x49 0x19 0x8c 0xd 0x84 0x81 0x44 0x13 0x89 ]
1457500: system.ruby.l1_cntrl0.sequencer: Hit callback for ReadReq 0x200
1457500: system.ruby.l1_cntrl0.sequencer.slave0: Hit callback needs response 1
1457500: system.ruby.l1_cntrl0.sequencer.slave0: Sending packet back over port
1457500: system.ruby.l1_cntrl0.sequencer.slave0: Hit callback done!
1457500: system.ruby.l1_cntrl0: executing p_profileHit
1457500: system.ruby.l1_cntrl0: executing m_popMandatoryQueue
1457500: system.ruby.l1_cntrl0.mandatoryQueue: Popping
1457500: system.ruby.l1_cntrl0: next_state: M
1460500: system.ruby.l1_cntrl0.sequencer.slave0: Timing request for address 0x400 on port 0
1460500: system.ruby.l1_cntrl0.mandatoryQueue: Enqueue arrival_time: 1461000, Message: [RubyRequest: LineAddress = 0x400 PhysicalAddress = 0x400 Type = IFETCH ProgramCounter = 0x1042e AccessMode = Supervisor Size = 64 Prefetch = No ]
1460500: system.ruby.l1_cntrl0.sequencer.slave0: Request ReadReq address 0x400 issued
1461000: system.ruby.l1_cntrl0.mandatoryQueue: Peeking at head of queue.
1461000: system.ruby.l1_cntrl0.mandatoryQueue: Message: [RubyRequest: LineAddress = 0x400 PhysicalAddress = 0x400 Type = IFETCH ProgramCounter = 0x1042e AccessMode = Supervisor Size = 64 Prefetch = No ]
1461000: system.ruby.l1_cntrl0: [L1Cache_Controller 0], Time: 2922, state: M, event: Ifetch, addr: 0x400
1461000: system.ruby.l1_cntrl0: executing r_load_hit
1461000: system.ruby.l1_cntrl0: MI_example-cache.sm:359: [ 0xe3 0x9f 0x77 0xf9 0x83 0xb7 0x89 0x1f 0xe3 0x86 0x97 0xfc 0x49 0xbf 0x23 0x34 0x4 0x0 0xd9 0xbf 0x83 0xa7 0x44 0x31 0x83 0x35 0x84 0x10 0xf1 0x8f 0x81 0x27 0x81 0xe7 0x56 0x85 0x82 0x96 0xe1 0xbf 0x2e 0x85 0x82 0x96 0xc9 0xbf 0x81 0x45 0x1 0x46 0x81 0x46 0x1 0x47 0x81 0x47 0x93 0x8 0xd0 0x5 0x73 0x0 0x0 0x0 ]
1461000: system.ruby.l1_cntrl0.sequencer: read data [ 0xe3 0x9f 0x77 0xf9 0x83 0xb7 0x89 0x1f 0xe3 0x86 0x97 0xfc 0x49 0xbf 0x23 0x34 0x4 0x0 0xd9 0xbf 0x83 0xa7 0x44 0x31 0x83 0x35 0x84 0x10 0xf1 0x8f 0x81 0x27 0x81 0xe7 0x56 0x85 0x82 0x96 0xe1 0xbf 0x2e 0x85 0x82 0x96 0xc9 0xbf 0x81 0x45 0x1 0x46 0x81 0x46 0x1 0x47 0x81 0x47 0x93 0x8 0xd0 0x5 0x73 0x0 0x0 0x0 ]
1461000: system.ruby.l1_cntrl0.sequencer: Hit callback for ReadReq 0x400
1461000: system.ruby.l1_cntrl0.sequencer.slave0: Hit callback needs response 1
1461000: system.ruby.l1_cntrl0.sequencer.slave0: Sending packet back over port
1461000: system.ruby.l1_cntrl0.sequencer.slave0: Hit callback done!
1461000: system.ruby.l1_cntrl0: executing p_profileHit
1461000: system.ruby.l1_cntrl0: executing m_popMandatoryQueue
1461000: system.ruby.l1_cntrl0.mandatoryQueue: Popping
1461000: system.ruby.l1_cntrl0: next_state: M
1462500: system.ruby.l1_cntrl0.sequencer.slave0: Timing request for address 0x440 on port 0
1462500: system.ruby.l1_cntrl0.mandatoryQueue: Enqueue arrival_time: 1463000, Message: [RubyRequest: LineAddress = 0x440 PhysicalAddress = 0x440 Type = IFETCH ProgramCounter = 0x10440 AccessMode = Supervisor Size = 64 Prefetch = No ]
1462500: system.ruby.l1_cntrl0.sequencer.slave0: Request ReadReq address 0x440 issued
1463000: system.ruby.l1_cntrl0.mandatoryQueue: Peeking at head of queue.
1463000: system.ruby.l1_cntrl0.mandatoryQueue: Message: [RubyRequest: LineAddress = 0x440 PhysicalAddress = 0x440 Type = IFETCH ProgramCounter = 0x10440 AccessMode = Supervisor Size = 64 Prefetch = No ]
1463000: system.ruby.l1_cntrl0: [L1Cache_Controller 0], Time: 2926, state: M, event: Ifetch, addr: 0x440
1463000: system.ruby.l1_cntrl0: executing r_load_hit
1463000: system.ruby.l1_cntrl0: MI_example-cache.sm:359: [ 0x63 0x5c 0x5 0x0 0x41 0x11 0x22 0xe0 0x2a 0x84 0x6 0xe4 0x3b 0x4 0x80 0x40 0xef 0x0 0xa0 0x0 0x0 0xc1 0x1 0xa0 0x1 0xa0 0x3 0xb5 0x1 0x81 0x82 0x80 0x0 0x0 0x0 0x0 0x0 0x0 0x0 0x0 0x0 0x0 0x0 0x0 0x0 0x0 0x0 0x0 0x0 0x0 0x0 0x0 0x0 0x0 0x0 0x0 0x0 0x0 0x0 0x0 0x0 0x0 0x0 0x0 ]
1463000: system.ruby.l1_cntrl0.sequencer: read data [ 0x63 0x5c 0x5 0x0 0x41 0x11 0x22 0xe0 0x2a 0x84 0x6 0xe4 0x3b 0x4 0x80 0x40 0xef 0x0 0xa0 0x0 0x0 0xc1 0x1 0xa0 0x1 0xa0 0x3 0xb5 0x1 0x81 0x82 0x80 0x0 0x0 0x0 0x0 0x0 0x0 0x0 0x0 0x0 0x0 0x0 0x0 0x0 0x0 0x0 0x0 0x0 0x0 0x0 0x0 0x0 0x0 0x0 0x0 0x0 0x0 0x0 0x0 0x0 0x0 0x0 0x0 ]
1463000: system.ruby.l1_cntrl0.sequencer: Hit callback for ReadReq 0x440
1463000: system.ruby.l1_cntrl0.sequencer.slave0: Hit callback needs response 1
1463000: system.ruby.l1_cntrl0.sequencer.slave0: Sending packet back over port
1463000: system.ruby.l1_cntrl0.sequencer.slave0: Hit callback done!
1463000: system.ruby.l1_cntrl0: executing p_profileHit
1463000: system.ruby.l1_cntrl0: executing m_popMandatoryQueue
1463000: system.ruby.l1_cntrl0.mandatoryQueue: Popping
1463000: system.ruby.l1_cntrl0: next_state: M
1465500: system.ruby.l1_cntrl0.sequencer.slave0: Timing request for address 0x480 on port 0
1465500: system.ruby.l1_cntrl0.mandatoryQueue: Enqueue arrival_time: 1466000, Message: [RubyRequest: LineAddress = 0x480 PhysicalAddress = 0x480 Type = IFETCH ProgramCounter = 0x10480 AccessMode = Supervisor Size = 64 Prefetch = No ]
1465500: system.ruby.l1_cntrl0.sequencer.slave0: Request ReadReq address 0x480 issued
1466000: system.ruby.l1_cntrl0.mandatoryQueue: Peeking at head of queue.
1466000: system.ruby.l1_cntrl0.mandatoryQueue: Message: [RubyRequest: LineAddress = 0x480 PhysicalAddress = 0x480 Type = IFETCH ProgramCounter = 0x10480 AccessMode = Supervisor Size = 64 Prefetch = No ]
1466000: system.ruby.l1_cntrl0: [L1Cache_Controller 0], Time: 2932, state: I, event: Ifetch, addr: 0x480
1466000: system.ruby.l1_cntrl0: executing v_allocateTBE
1466000: system.ruby.l1_cntrl0: executing i_allocateL1CacheBlock
1466000: system.ruby.l1_cntrl0.cacheMemory: No tag match for address: 0x480
1466000: system.ruby.l1_cntrl0.cacheMemory: address: 0x480
1466000: system.ruby.l1_cntrl0.cacheMemory: Allocate clearing lock for addr: 480
1466000: system.ruby.l1_cntrl0: executing a_issueRequest
1466000: system.ruby.l1_cntrl0.requestFromCache: Enqueue arrival_time: 1467000, Message: [RequestMsg: addr = [0x480, line 0x480] Type = GETX Requestor = L1Cache-0 Destination = [NetDest (17)  - 0 0 0 0  -  -  - 0 0 1 0  -  -  -  -  -  -  -  -  -  -  -  -  - ] DataBlk = [ 0x0 0x0 0x0 0x0 0x0 0x0 0x0 0x0 0x0 0x0 0x0 0x0 0x0 0x0 0x0 0x0 0x0 0x0 0x0 0x0 0x0 0x0 0x0 0x0 0x0 0x0 0x0 0x0 0x0 0x0 0x0 0x0 0x0 0x0 0x0 0x0 0x0 0x0 0x0 0x0 0x0 0x0 0x0 0x0 0x0 0x0 0x0 0x0 0x0 0x0 0x0 0x0 0x0 0x0 0x0 0x0 0x0 0x0 0x0 0x0 0x0 0x0 0x0 0x0 ] MessageSize = Control ]
1466000: system.ruby.l1_cntrl0: executing p_profileMiss
1466000: system.ruby.l1_cntrl0: executing m_popMandatoryQueue
1466000: system.ruby.l1_cntrl0.mandatoryQueue: Popping
1466000: system.ruby.l1_cntrl0: next_state: IS
1467000: PerfectSwitch-0: incoming: 0
1467000: PerfectSwitch-0: Message: [RequestMsg: addr = [0x480, line 0x480] Type = GETX Requestor = L1Cache-0 Destination = [NetDest (17)  - 0 0 0 0  -  -  - 0 0 1 0  -  -  -  -  -  -  -  -  -  -  -  -  - ] DataBlk = [ 0x0 0x0 0x0 0x0 0x0 0x0 0x0 0x0 0x0 0x0 0x0 0x0 0x0 0x0 0x0 0x0 0x0 0x0 0x0 0x0 0x0 0x0 0x0 0x0 0x0 0x0 0x0 0x0 0x0 0x0 0x0 0x0 0x0 0x0 0x0 0x0 0x0 0x0 0x0 0x0 0x0 0x0 0x0 0x0 0x0 0x0 0x0 0x0 0x0 0x0 0x0 0x0 0x0 0x0 0x0 0x0 0x0 0x0 0x0 0x0 0x0 0x0 0x0 0x0 ] MessageSize = Control ]
1467000: PerfectSwitch-0: dst: [NetDest (17)  - 1 0 0 0  -  -  - 0 0 0 0  -  -  -  -  -  -  -  -  -  -  -  -  - ]
1467000: PerfectSwitch-0: dst: [NetDest (17)  - 0 0 0 0  -  -  - 1 0 0 0  -  -  -  -  -  -  -  -  -  -  -  -  - ]
1467000: PerfectSwitch-0: dst: [NetDest (17)  - 0 1 0 1  -  -  - 0 1 0 1  -  -  -  -  -  -  -  -  -  -  -  -  - ]
1467000: PerfectSwitch-0: dst: [NetDest (17)  - 0 0 1 1  -  -  - 0 0 1 1  -  -  -  -  -  -  -  -  -  -  -  -  - ]
1467000: PerfectSwitch-0: Checking if node is blocked ...outgoing: 3, vnet: 2, enough: 1
1467000: system.ruby.l1_cntrl0.requestFromCache: Popping
1467000: PerfectSwitch-0: Enqueuing net msg from inport[0][2] to outport [3][2].
1467000: system.ruby.network.routers0.port_buffers15: Enqueue arrival_time: 1467500, Message: [RequestMsg: addr = [0x480, line 0x480] Type = GETX Requestor = L1Cache-0 Destination = [NetDest (17)  - 0 0 0 0  -  -  - 0 0 1 0  -  -  -  -  -  -  -  -  -  -  -  -  - ] DataBlk = [ 0x0 0x0 0x0 0x0 0x0 0x0 0x0 0x0 0x0 0x0 0x0 0x0 0x0 0x0 0x0 0x0 0x0 0x0 0x0 0x0 0x0 0x0 0x0 0x0 0x0 0x0 0x0 0x0 0x0 0x0 0x0 0x0 0x0 0x0 0x0 0x0 0x0 0x0 0x0 0x0 0x0 0x0 0x0 0x0 0x0 0x0 0x0 0x0 0x0 0x0 0x0 0x0 0x0 0x0 0x0 0x0 0x0 0x0 0x0 0x0 0x0 0x0 0x0 0x0 ] MessageSize = Control ]
1467500: Throttle-0: throttle: 3 my bw 16000 bw spent enqueueing net msg 8000 time: 2935.
1467500: system.ruby.network.routers0.port_buffers15: Popping
1467500: system.ruby.network.int_link_buffers07: Enqueue arrival_time: 1468000, Message: [RequestMsg: addr = [0x480, line 0x480] Type = GETX Requestor = L1Cache-0 Destination = [NetDest (17)  - 0 0 0 0  -  -  - 0 0 1 0  -  -  -  -  -  -  -  -  -  -  -  -  - ] DataBlk = [ 0x0 0x0 0x0 0x0 0x0 0x0 0x0 0x0 0x0 0x0 0x0 0x0 0x0 0x0 0x0 0x0 0x0 0x0 0x0 0x0 0x0 0x0 0x0 0x0 0x0 0x0 0x0 0x0 0x0 0x0 0x0 0x0 0x0 0x0 0x0 0x0 0x0 0x0 0x0 0x0 0x0 0x0 0x0 0x0 0x0 0x0 0x0 0x0 0x0 0x0 0x0 0x0 0x0 0x0 0x0 0x0 0x0 0x0 0x0 0x0 0x0 0x0 0x0 0x0 ] MessageSize = Control ]
1467500: Throttle-0: [MessageBuffer:  consumer-yes [ 0x3d69bb0 ]] system.ruby.network.int_link_buffers07
1467500: Throttle-0: [3 bw: 16000] not scheduled again
Exiting @ tick 1467500 because exiting with last active thread context
