gem5 Simulator System.  http://gem5.org
gem5 is copyrighted software; use the --copyright option for details.

gem5 compiled May 17 2019 16:57:19
gem5 started May 17 2019 17:02:16
gem5 executing on octa, pid 341
command line: gem5.opt /home/vidushi/ss-stack/gem5/configs/example/se.py --cpu-type=MinorCPU --l1d_size=16384kB --l1i_size=16kB --caches --ruby --num-cpus=2 --num-dirs=1 --network=simple --topology=Mesh_XY --mesh-rows=1 --cmd=bin/fix_broadcast

Global frequency set at 1000000000000 ticks per second
SS_DEBUG VAR: MEM_REQ IS ON
Loading SS Config (env SBCONFIG): "/home/vidushi/ss-stack/ss-tools/configs/spu_merge_test.sbmodel"
FU_FIFO_LEN:15
IND_ROB_SIZE:8
VPORT_IN depricated, ignoring colons, switch to PORT_IN
SS_DEBUG VAR: MEM_REQ IS ON
Loading SS Config (env SBCONFIG): "/home/vidushi/ss-stack/ss-tools/configs/spu_merge_test.sbmodel"
FU_FIFO_LEN:15
IND_ROB_SIZE:8
**** REAL SIMULATION ****
In main: creating thread 0
Using Schedule: "sched/none_8.sched"
4235555	acc0 request for dae80 for 56 needed elements
 -- dma->port
dim[0]: stride=1, trip_cnt=56/409600, stretch=0
innermost: current=896704, acc_size=0/1, port=10
 in_port=10 (A ) repeat_in=1 stretch=0               ACTIVE
4235556	acc0 request for daec0 for 64 needed elements
 -- dma->port
dim[0]: stride=1, trip_cnt=120/409600, stretch=0
innermost: current=896768, acc_size=0/1, port=10
 in_port=10 (A ) repeat_in=1 stretch=0               ACTIVE
4235557	acc0 request for daf00 for 64 needed elements
 -- dma->port
dim[0]: stride=1, trip_cnt=184/409600, stretch=0
innermost: current=896832, acc_size=0/1, port=10
 in_port=10 (A ) repeat_in=1 stretch=0               ACTIVE
4235558	acc0 request for daf40 for 64 needed elements
 -- dma->port
dim[0]: stride=1, trip_cnt=248/409600, stretch=0
innermost: current=896896, acc_size=0/1, port=10
 in_port=10 (A ) repeat_in=1 stretch=0               ACTIVE
4235559	acc0 request for daf80 for 64 needed elements
 -- dma->port
dim[0]: stride=1, trip_cnt=312/409600, stretch=0
innermost: current=896960, acc_size=0/1, port=10
 in_port=10 (A ) repeat_in=1 stretch=0               ACTIVE
4235560	acc0 request for dafc0 for 64 needed elements
 -- dma->port
dim[0]: stride=1, trip_cnt=376/409600, stretch=0
innermost: current=897024, acc_size=0/1, port=10
 in_port=10 (A ) repeat_in=1 stretch=0               ACTIVE
4235561	acc0 request for db000 for 64 needed elements
 -- dma->port
dim[0]: stride=1, trip_cnt=440/409600, stretch=0
innermost: current=897088, acc_size=0/1, port=10
 in_port=10 (A ) repeat_in=1 stretch=0               ACTIVE
4235562	acc0 request for db040 for 64 needed elements
 -- dma->port
dim[0]: stride=1, trip_cnt=504/409600, stretch=0
innermost: current=897152, acc_size=0/1, port=10
 in_port=10 (A ) repeat_in=1 stretch=0               ACTIVE
4235563	acc0 request for db080 for 64 needed elements
 -- dma->port
dim[0]: stride=1, trip_cnt=568/409600, stretch=0
innermost: current=897216, acc_size=0/1, port=10
 in_port=10 (A ) repeat_in=1 stretch=0               ACTIVE
4235564	acc0 request for db0c0 for 64 needed elements
 -- dma->port
dim[0]: stride=1, trip_cnt=632/409600, stretch=0
innermost: current=897280, acc_size=0/1, port=10
 in_port=10 (A ) repeat_in=1 stretch=0               ACTIVE
4235565	acc0 request for db100 for 64 needed elements
 -- dma->port
dim[0]: stride=1, trip_cnt=696/409600, stretch=0
innermost: current=897344, acc_size=0/1, port=10
 in_port=10 (A ) repeat_in=1 stretch=0               ACTIVE
4235566	acc0 request for db140 for 64 needed elements
 -- dma->port
dim[0]: stride=1, trip_cnt=760/409600, stretch=0
innermost: current=897408, acc_size=0/1, port=10
 in_port=10 (A ) repeat_in=1 stretch=0               ACTIVE
4235567	acc0 request for db180 for 64 needed elements
 -- dma->port
dim[0]: stride=1, trip_cnt=824/409600, stretch=0
innermost: current=897472, acc_size=0/1, port=10
 in_port=10 (A ) repeat_in=1 stretch=0               ACTIVE
4235568	acc0 request for db1c0 for 64 needed elements
 -- dma->port
dim[0]: stride=1, trip_cnt=888/409600, stretch=0
innermost: current=897536, acc_size=0/1, port=10
 in_port=10 (A ) repeat_in=1 stretch=0               ACTIVE
4235569	acc0 request for db200 for 64 needed elements
 -- dma->port
dim[0]: stride=1, trip_cnt=952/409600, stretch=0
innermost: current=897600, acc_size=0/1, port=10
 in_port=10 (A ) repeat_in=1 stretch=0               ACTIVE
4235570	acc0 request for db240 for 64 needed elements
 -- dma->port
dim[0]: stride=1, trip_cnt=1016/409600, stretch=0
innermost: current=897664, acc_size=0/1, port=10
 in_port=10 (A ) repeat_in=1 stretch=0               ACTIVE
4235571	acc0 request for db280 for 64 needed elements
 -- dma->port
dim[0]: stride=1, trip_cnt=1080/409600, stretch=0
innermost: current=897728, acc_size=0/1, port=10
 in_port=10 (A ) repeat_in=1 stretch=0               ACTIVE
4235572	acc0 request for db2c0 for 64 needed elements
 -- dma->port
dim[0]: stride=1, trip_cnt=1144/409600, stretch=0
innermost: current=897792, acc_size=0/1, port=10
 in_port=10 (A ) repeat_in=1 stretch=0               ACTIVE
4235573	acc0 request for db300 for 64 needed elements
 -- dma->port
dim[0]: stride=1, trip_cnt=1208/409600, stretch=0
innermost: current=897856, acc_size=0/1, port=10
 in_port=10 (A ) repeat_in=1 stretch=0               ACTIVE
4235574	acc0 request for db340 for 64 needed elements
 -- dma->port
dim[0]: stride=1, trip_cnt=1272/409600, stretch=0
innermost: current=897920, acc_size=0/1, port=10
 in_port=10 (A ) repeat_in=1 stretch=0               ACTIVE
4235575	acc0 request for db380 for 64 needed elements
 -- dma->port
dim[0]: stride=1, trip_cnt=1336/409600, stretch=0
innermost: current=897984, acc_size=0/1, port=10
 in_port=10 (A ) repeat_in=1 stretch=0               ACTIVE
4235592	acc0 request for db3c0 for 64 needed elements
 -- dma->port
dim[0]: stride=1, trip_cnt=1400/409600, stretch=0
innermost: current=898048, acc_size=0/1, port=10
 in_port=10 (A ) repeat_in=1 stretch=0               ACTIVE
4235593	acc0 response for cae80for port 10, size in bytes: 56 elements
4235596	acc0 request for db400 for 64 needed elements
 -- dma->port
dim[0]: stride=1, trip_cnt=1464/409600, stretch=0
innermost: current=898112, acc_size=0/1, port=10
 in_port=10 (A ) repeat_in=1 stretch=0               ACTIVE
4235597	acc0 response for caec0for port 10, size in bytes: 64 elements
4235601	acc0 request for db440 for 64 needed elements
 -- dma->port
dim[0]: stride=1, trip_cnt=1528/409600, stretch=0
innermost: current=898176, acc_size=0/1, port=10
 in_port=10 (A ) repeat_in=1 stretch=0               ACTIVE
4235602	acc0 response for caf00for port 10, size in bytes: 64 elements
4235605	acc0 request for db480 for 64 needed elements
 -- dma->port
dim[0]: stride=1, trip_cnt=1592/409600, stretch=0
innermost: current=898240, acc_size=0/1, port=10
 in_port=10 (A ) repeat_in=1 stretch=0               ACTIVE
4235606	acc0 response for caf40for port 10, size in bytes: 64 elements
4235610	acc0 request for db4c0 for 64 needed elements
 -- dma->port
dim[0]: stride=1, trip_cnt=1656/409600, stretch=0
innermost: current=898304, acc_size=0/1, port=10
 in_port=10 (A ) repeat_in=1 stretch=0               ACTIVE
4235611	acc0 response for caf80for port 10, size in bytes: 64 elements
4235614	acc0 request for db500 for 64 needed elements
 -- dma->port
dim[0]: stride=1, trip_cnt=1720/409600, stretch=0
innermost: current=898368, acc_size=0/1, port=10
 in_port=10 (A ) repeat_in=1 stretch=0               ACTIVE
4235615	acc0 response for cafc0for port 10, size in bytes: 64 elements
4235619	acc0 request for db540 for 64 needed elements
 -- dma->port
dim[0]: stride=1, trip_cnt=1784/409600, stretch=0
innermost: current=898432, acc_size=0/1, port=10
 in_port=10 (A ) repeat_in=1 stretch=0               ACTIVE
4235620	acc0 response for cb000for port 10, size in bytes: 64 elements
4235623	acc0 request for db580 for 64 needed elements
 -- dma->port
dim[0]: stride=1, trip_cnt=1848/409600, stretch=0
innermost: current=898496, acc_size=0/1, port=10
 in_port=10 (A ) repeat_in=1 stretch=0               ACTIVE
4235624	acc0 response for cb040for port 10, size in bytes: 64 elements
4235649	acc0 response for cb080for port 10, size in bytes: 64 elements
4235713	acc0 response for cb0c0for port 10, size in bytes: 64 elements
4235777	acc0 response for cb100for port 10, size in bytes: 64 elements
4235841	acc0 response for cb140for port 10, size in bytes: 64 elements
4235905	acc0 response for cb180for port 10, size in bytes: 64 elements
4235969	acc0 response for cb1c0for port 10, size in bytes: 64 elements
4236033	acc0 response for cb200for port 10, size in bytes: 64 elements
4236097	acc0 response for cb240for port 10, size in bytes: 64 elements
4236161	acc0 response for cb280for port 10, size in bytes: 64 elements
4236225	acc0 response for cb2c0for port 10, size in bytes: 64 elements
4236289	acc0 response for cb300for port 10, size in bytes: 64 elements
4236353	acc0 response for cb340for port 10, size in bytes: 64 elements
4236417	acc0 response for cb380for port 10, size in bytes: 64 elements
4236481	acc0 response for cb3c0for port 10, size in bytes: 64 elements
4236545	acc0 response for cb400for port 10, size in bytes: 64 elements
4236609	acc0 response for cb440for port 10, size in bytes: 64 elements
4236673	acc0 response for cb480for port 10, size in bytes: 64 elements
4236737	acc0 response for cb4c0for port 10, size in bytes: 64 elements
4236801	acc0 response for cb500for port 10, size in bytes: 64 elements
4236865	acc0 response for cb540for port 10, size in bytes: 64 elements
4236929	acc0 response for cb580for port 10, size in bytes: 64 elements
4236993	acc0 request for db5c0 for 64 needed elements
 -- dma->port
dim[0]: stride=1, trip_cnt=1912/409600, stretch=0
innermost: current=898560, acc_size=0/1, port=10
 in_port=10 (A ) repeat_in=1 stretch=0               ACTIVE
4236994	acc0 request for db600 for 64 needed elements
 -- dma->port
dim[0]: stride=1, trip_cnt=1976/409600, stretch=0
innermost: current=898624, acc_size=0/1, port=10
 in_port=10 (A ) repeat_in=1 stretch=0               ACTIVE
4236995	acc0 request for db640 for 64 needed elements
 -- dma->port
dim[0]: stride=1, trip_cnt=2040/409600, stretch=0
innermost: current=898688, acc_size=0/1, port=10
 in_port=10 (A ) repeat_in=1 stretch=0               ACTIVE
4236996	acc0 request for db680 for 64 needed elements
 -- dma->port
dim[0]: stride=1, trip_cnt=2104/409600, stretch=0
innermost: current=898752, acc_size=0/1, port=10
 in_port=10 (A ) repeat_in=1 stretch=0               ACTIVE
4236997	acc0 request for db6c0 for 64 needed elements
 -- dma->port
dim[0]: stride=1, trip_cnt=2168/409600, stretch=0
innermost: current=898816, acc_size=0/1, port=10
 in_port=10 (A ) repeat_in=1 stretch=0               ACTIVE
4236998	acc0 request for db700 for 64 needed elements
 -- dma->port
dim[0]: stride=1, trip_cnt=2232/409600, stretch=0
innermost: current=898880, acc_size=0/1, port=10
 in_port=10 (A ) repeat_in=1 stretch=0               ACTIVE
4236999	acc0 request for db740 for 64 needed elements
 -- dma->port
dim[0]: stride=1, trip_cnt=2296/409600, stretch=0
innermost: current=898944, acc_size=0/1, port=10
 in_port=10 (A ) repeat_in=1 stretch=0               ACTIVE
4237000	acc0 request for db780 for 64 needed elements
 -- dma->port
dim[0]: stride=1, trip_cnt=2360/409600, stretch=0
innermost: current=899008, acc_size=0/1, port=10
 in_port=10 (A ) repeat_in=1 stretch=0               ACTIVE
4237001	acc0 request for db7c0 for 64 needed elements
 -- dma->port
dim[0]: stride=1, trip_cnt=2424/409600, stretch=0
innermost: current=899072, acc_size=0/1, port=10
 in_port=10 (A ) repeat_in=1 stretch=0               ACTIVE
4237002	acc0 request for db800 for 64 needed elements
 -- dma->port
dim[0]: stride=1, trip_cnt=2488/409600, stretch=0
innermost: current=899136, acc_size=0/1, port=10
 in_port=10 (A ) repeat_in=1 stretch=0               ACTIVE
4237003	acc0 request for db840 for 64 needed elements
 -- dma->port
dim[0]: stride=1, trip_cnt=2552/409600, stretch=0
innermost: current=899200, acc_size=0/1, port=10
 in_port=10 (A ) repeat_in=1 stretch=0               ACTIVE
4237004	acc0 request for db880 for 64 needed elements
 -- dma->port
dim[0]: stride=1, trip_cnt=2616/409600, stretch=0
innermost: current=899264, acc_size=0/1, port=10
 in_port=10 (A ) repeat_in=1 stretch=0               ACTIVE
4237005	acc0 request for db8c0 for 64 needed elements
 -- dma->port
dim[0]: stride=1, trip_cnt=2680/409600, stretch=0
innermost: current=899328, acc_size=0/1, port=10
 in_port=10 (A ) repeat_in=1 stretch=0               ACTIVE
4237006	acc0 request for db900 for 64 needed elements
 -- dma->port
dim[0]: stride=1, trip_cnt=2744/409600, stretch=0
innermost: current=899392, acc_size=0/1, port=10
 in_port=10 (A ) repeat_in=1 stretch=0               ACTIVE
4237007	acc0 request for db940 for 64 needed elements
 -- dma->port
dim[0]: stride=1, trip_cnt=2808/409600, stretch=0
innermost: current=899456, acc_size=0/1, port=10
 in_port=10 (A ) repeat_in=1 stretch=0               ACTIVE
4237008	acc0 request for db980 for 64 needed elements
 -- dma->port
dim[0]: stride=1, trip_cnt=2872/409600, stretch=0
innermost: current=899520, acc_size=0/1, port=10
 in_port=10 (A ) repeat_in=1 stretch=0               ACTIVE
4237009	acc0 request for db9c0 for 64 needed elements
 -- dma->port
dim[0]: stride=1, trip_cnt=2936/409600, stretch=0
innermost: current=899584, acc_size=0/1, port=10
 in_port=10 (A ) repeat_in=1 stretch=0               ACTIVE
4237010	acc0 request for dba00 for 64 needed elements
 -- dma->port
dim[0]: stride=1, trip_cnt=3000/409600, stretch=0
innermost: current=899648, acc_size=0/1, port=10
 in_port=10 (A ) repeat_in=1 stretch=0               ACTIVE
4237011	acc0 request for dba40 for 64 needed elements
 -- dma->port
dim[0]: stride=1, trip_cnt=3064/409600, stretch=0
innermost: current=899712, acc_size=0/1, port=10
 in_port=10 (A ) repeat_in=1 stretch=0               ACTIVE
4237012	acc0 request for dba80 for 64 needed elements
 -- dma->port
dim[0]: stride=1, trip_cnt=3128/409600, stretch=0
innermost: current=899776, acc_size=0/1, port=10
 in_port=10 (A ) repeat_in=1 stretch=0               ACTIVE
4237013	acc0 request for dbac0 for 64 needed elements
 -- dma->port
dim[0]: stride=1, trip_cnt=3192/409600, stretch=0
innermost: current=899840, acc_size=0/1, port=10
 in_port=10 (A ) repeat_in=1 stretch=0               ACTIVE
4237014	acc0 request for dbb00 for 64 needed elements
 -- dma->port
dim[0]: stride=1, trip_cnt=3256/409600, stretch=0
innermost: current=899904, acc_size=0/1, port=10
 in_port=10 (A ) repeat_in=1 stretch=0               ACTIVE
4237031	acc0 response for cb5c0for port 10, size in bytes: 64 elements
4237057	acc0 response for cb600for port 10, size in bytes: 64 elements
4237121	acc0 response for cb640for port 10, size in bytes: 64 elements
4237185	acc0 response for cb680for port 10, size in bytes: 64 elements
4237249	acc0 response for cb6c0for port 10, size in bytes: 64 elements
4237313	acc0 response for cb700for port 10, size in bytes: 64 elements
4237377	acc0 response for cb740for port 10, size in bytes: 64 elements
4237441	acc0 response for cb780for port 10, size in bytes: 64 elements
4237505	acc0 response for cb7c0for port 10, size in bytes: 64 elements
4237569	acc0 response for cb800for port 10, size in bytes: 64 elements
4237633	acc0 response for cb840for port 10, size in bytes: 64 elements
4237697	acc0 response for cb880for port 10, size in bytes: 64 elements
4237761	acc0 response for cb8c0for port 10, size in bytes: 64 elements
4237825	acc0 response for cb900for port 10, size in bytes: 64 elements
4237889	acc0 response for cb940for port 10, size in bytes: 64 elements
4237953	acc0 response for cb980for port 10, size in bytes: 64 elements
4238017	acc0 response for cb9c0for port 10, size in bytes: 64 elements
4238081	acc0 response for cba00for port 10, size in bytes: 64 elements
4238145	acc0 response for cba40for port 10, size in bytes: 64 elements
4238209	acc0 response for cba80for port 10, size in bytes: 64 elements
4238273	acc0 response for cbac0for port 10, size in bytes: 64 elements
4238337	acc0 response for cbb00for port 10, size in bytes: 64 elements
4238401	acc0 request for dbb40 for 64 needed elements
 -- dma->port
dim[0]: stride=1, trip_cnt=3320/409600, stretch=0
innermost: current=899968, acc_size=0/1, port=10
 in_port=10 (A ) repeat_in=1 stretch=0               ACTIVE
4238402	acc0 request for dbb80 for 64 needed elements
 -- dma->port
dim[0]: stride=1, trip_cnt=3384/409600, stretch=0
innermost: current=900032, acc_size=0/1, port=10
 in_port=10 (A ) repeat_in=1 stretch=0               ACTIVE
4238403	acc0 request for dbbc0 for 64 needed elements
 -- dma->port
dim[0]: stride=1, trip_cnt=3448/409600, stretch=0
innermost: current=900096, acc_size=0/1, port=10
 in_port=10 (A ) repeat_in=1 stretch=0               ACTIVE
4238404	acc0 request for dbc00 for 64 needed elements
 -- dma->port
dim[0]: stride=1, trip_cnt=3512/409600, stretch=0
innermost: current=900160, acc_size=0/1, port=10
 in_port=10 (A ) repeat_in=1 stretch=0               ACTIVE
4238405	acc0 request for dbc40 for 64 needed elements
 -- dma->port
dim[0]: stride=1, trip_cnt=3576/409600, stretch=0
innermost: current=900224, acc_size=0/1, port=10
 in_port=10 (A ) repeat_in=1 stretch=0               ACTIVE
4238406	acc0 request for dbc80 for 64 needed elements
 -- dma->port
dim[0]: stride=1, trip_cnt=3640/409600, stretch=0
innermost: current=900288, acc_size=0/1, port=10
 in_port=10 (A ) repeat_in=1 stretch=0               ACTIVE
4238407	acc0 request for dbcc0 for 64 needed elements
 -- dma->port
dim[0]: stride=1, trip_cnt=3704/409600, stretch=0
innermost: current=900352, acc_size=0/1, port=10
 in_port=10 (A ) repeat_in=1 stretch=0               ACTIVE
4238408	acc0 request for dbd00 for 64 needed elements
 -- dma->port
dim[0]: stride=1, trip_cnt=3768/409600, stretch=0
innermost: current=900416, acc_size=0/1, port=10
 in_port=10 (A ) repeat_in=1 stretch=0               ACTIVE
4238409	acc0 request for dbd40 for 64 needed elements
 -- dma->port
dim[0]: stride=1, trip_cnt=3832/409600, stretch=0
innermost: current=900480, acc_size=0/1, port=10
 in_port=10 (A ) repeat_in=1 stretch=0               ACTIVE
4238410	acc0 request for dbd80 for 64 needed elements
 -- dma->port
dim[0]: stride=1, trip_cnt=3896/409600, stretch=0
innermost: current=900544, acc_size=0/1, port=10
 in_port=10 (A ) repeat_in=1 stretch=0               ACTIVE
4238411	acc0 request for dbdc0 for 64 needed elements
 -- dma->port
dim[0]: stride=1, trip_cnt=3960/409600, stretch=0
innermost: current=900608, acc_size=0/1, port=10
 in_port=10 (A ) repeat_in=1 stretch=0               ACTIVE
4238412	acc0 request for dbe00 for 64 needed elements
 -- dma->port
dim[0]: stride=1, trip_cnt=4024/409600, stretch=0
innermost: current=900672, acc_size=0/1, port=10
 in_port=10 (A ) repeat_in=1 stretch=0               ACTIVE
4238413	acc0 request for dbe40 for 64 needed elements
 -- dma->port
dim[0]: stride=1, trip_cnt=4088/409600, stretch=0
innermost: current=900736, acc_size=0/1, port=10
 in_port=10 (A ) repeat_in=1 stretch=0               ACTIVE
4238414	acc0 request for dbe80 for 64 needed elements
 -- dma->port
dim[0]: stride=1, trip_cnt=4152/409600, stretch=0
innermost: current=900800, acc_size=0/1, port=10
 in_port=10 (A ) repeat_in=1 stretch=0               ACTIVE
4238415	acc0 request for dbec0 for 64 needed elements
 -- dma->port
dim[0]: stride=1, trip_cnt=4216/409600, stretch=0
innermost: current=900864, acc_size=0/1, port=10
 in_port=10 (A ) repeat_in=1 stretch=0               ACTIVE
4238416	acc0 request for dbf00 for 64 needed elements
 -- dma->port
dim[0]: stride=1, trip_cnt=4280/409600, stretch=0
innermost: current=900928, acc_size=0/1, port=10
 in_port=10 (A ) repeat_in=1 stretch=0               ACTIVE
4238417	acc0 request for dbf40 for 64 needed elements
 -- dma->port
dim[0]: stride=1, trip_cnt=4344/409600, stretch=0
innermost: current=900992, acc_size=0/1, port=10
 in_port=10 (A ) repeat_in=1 stretch=0               ACTIVE
4238418	acc0 request for dbf80 for 64 needed elements
 -- dma->port
dim[0]: stride=1, trip_cnt=4408/409600, stretch=0
innermost: current=901056, acc_size=0/1, port=10
 in_port=10 (A ) repeat_in=1 stretch=0               ACTIVE
4238419	acc0 request for dbfc0 for 64 needed elements
 -- dma->port
dim[0]: stride=1, trip_cnt=4472/409600, stretch=0
innermost: current=901120, acc_size=0/1, port=10
 in_port=10 (A ) repeat_in=1 stretch=0               ACTIVE
4238420	acc0 request for dc000 for 64 needed elements
 -- dma->port
dim[0]: stride=1, trip_cnt=4536/409600, stretch=0
innermost: current=901184, acc_size=0/1, port=10
 in_port=10 (A ) repeat_in=1 stretch=0               ACTIVE
4238421	acc0 request for dc040 for 64 needed elements
 -- dma->port
dim[0]: stride=1, trip_cnt=4600/409600, stretch=0
innermost: current=901248, acc_size=0/1, port=10
 in_port=10 (A ) repeat_in=1 stretch=0               ACTIVE
4238422	acc0 request for dc080 for 64 needed elements
 -- dma->port
dim[0]: stride=1, trip_cnt=4664/409600, stretch=0
innermost: current=901312, acc_size=0/1, port=10
 in_port=10 (A ) repeat_in=1 stretch=0               ACTIVE
4238439	acc0 response for cbb40for port 10, size in bytes: 64 elements
4238465	acc0 response for cbb80for port 10, size in bytes: 64 elements
4238529	acc0 response for cbbc0for port 10, size in bytes: 64 elements
4238593	acc0 response for cbc00for port 10, size in bytes: 64 elements
4238657	acc0 response for cbc40for port 10, size in bytes: 64 elements
4238721	acc0 response for cbc80for port 10, size in bytes: 64 elements
4238785	acc0 response for cbcc0for port 10, size in bytes: 64 elements
4238849	acc0 response for cbd00for port 10, size in bytes: 64 elements
4238913	acc0 response for cbd40for port 10, size in bytes: 64 elements
4238977	acc0 response for cbd80for port 10, size in bytes: 64 elements
4239041	acc0 response for cbdc0for port 10, size in bytes: 64 elements
4239105	acc0 response for cbe00for port 10, size in bytes: 64 elements
4239169	acc0 response for cbe40for port 10, size in bytes: 64 elements
4239233	acc0 response for cbe80for port 10, size in bytes: 64 elements
4239297	acc0 response for cbec0for port 10, size in bytes: 64 elements
4239361	acc0 response for cbf00for port 10, size in bytes: 64 elements
4239425	acc0 response for cbf40for port 10, size in bytes: 64 elements
4239489	acc0 response for cbf80for port 10, size in bytes: 64 elements
4239553	acc0 response for cbfc0for port 10, size in bytes: 64 elements
4239617	acc0 response for cc000for port 10, size in bytes: 64 elements
4239681	acc0 response for cc040for port 10, size in bytes: 64 elements
4239745	acc0 response for cc080for port 10, size in bytes: 64 elements
4239809	acc0 request for dc0c0 for 64 needed elements
 -- dma->port
dim[0]: stride=1, trip_cnt=4728/409600, stretch=0
innermost: current=901376, acc_size=0/1, port=10
 in_port=10 (A ) repeat_in=1 stretch=0               ACTIVE
4239810	acc0 request for dc100 for 64 needed elements
 -- dma->port
dim[0]: stride=1, trip_cnt=4792/409600, stretch=0
innermost: current=901440, acc_size=0/1, port=10
 in_port=10 (A ) repeat_in=1 stretch=0               ACTIVE
4239811	acc0 request for dc140 for 64 needed elements
 -- dma->port
dim[0]: stride=1, trip_cnt=4856/409600, stretch=0
innermost: current=901504, acc_size=0/1, port=10
 in_port=10 (A ) repeat_in=1 stretch=0               ACTIVE
4239812	acc0 request for dc180 for 64 needed elements
 -- dma->port
dim[0]: stride=1, trip_cnt=4920/409600, stretch=0
innermost: current=901568, acc_size=0/1, port=10
 in_port=10 (A ) repeat_in=1 stretch=0               ACTIVE
4239813	acc0 request for dc1c0 for 64 needed elements
 -- dma->port
dim[0]: stride=1, trip_cnt=4984/409600, stretch=0
innermost: current=901632, acc_size=0/1, port=10
 in_port=10 (A ) repeat_in=1 stretch=0               ACTIVE
4239814	acc0 request for dc200 for 64 needed elements
 -- dma->port
dim[0]: stride=1, trip_cnt=5048/409600, stretch=0
innermost: current=901696, acc_size=0/1, port=10
 in_port=10 (A ) repeat_in=1 stretch=0               ACTIVE
4239815	acc0 request for dc240 for 64 needed elements
 -- dma->port
dim[0]: stride=1, trip_cnt=5112/409600, stretch=0
innermost: current=901760, acc_size=0/1, port=10
 in_port=10 (A ) repeat_in=1 stretch=0               ACTIVE
4239816	acc0 request for dc280 for 64 needed elements
 -- dma->port
dim[0]: stride=1, trip_cnt=5176/409600, stretch=0
innermost: current=901824, acc_size=0/1, port=10
 in_port=10 (A ) repeat_in=1 stretch=0               ACTIVE
4239817	acc0 request for dc2c0 for 64 needed elements
 -- dma->port
dim[0]: stride=1, trip_cnt=5240/409600, stretch=0
innermost: current=901888, acc_size=0/1, port=10
 in_port=10 (A ) repeat_in=1 stretch=0               ACTIVE
4239818	acc0 request for dc300 for 64 needed elements
 -- dma->port
dim[0]: stride=1, trip_cnt=5304/409600, stretch=0
innermost: current=901952, acc_size=0/1, port=10
 in_port=10 (A ) repeat_in=1 stretch=0               ACTIVE
4239819	acc0 request for dc340 for 64 needed elements
 -- dma->port
dim[0]: stride=1, trip_cnt=5368/409600, stretch=0
innermost: current=902016, acc_size=0/1, port=10
 in_port=10 (A ) repeat_in=1 stretch=0               ACTIVE
4239820	acc0 request for dc380 for 64 needed elements
 -- dma->port
dim[0]: stride=1, trip_cnt=5432/409600, stretch=0
innermost: current=902080, acc_size=0/1, port=10
 in_port=10 (A ) repeat_in=1 stretch=0               ACTIVE
4239821	acc0 request for dc3c0 for 64 needed elements
 -- dma->port
dim[0]: stride=1, trip_cnt=5496/409600, stretch=0
innermost: current=902144, acc_size=0/1, port=10
 in_port=10 (A ) repeat_in=1 stretch=0               ACTIVE
4239822	acc0 request for dc400 for 64 needed elements
 -- dma->port
dim[0]: stride=1, trip_cnt=5560/409600, stretch=0
innermost: current=902208, acc_size=0/1, port=10
 in_port=10 (A ) repeat_in=1 stretch=0               ACTIVE
4239823	acc0 request for dc440 for 64 needed elements
 -- dma->port
dim[0]: stride=1, trip_cnt=5624/409600, stretch=0
innermost: current=902272, acc_size=0/1, port=10
 in_port=10 (A ) repeat_in=1 stretch=0               ACTIVE
4239824	acc0 request for dc480 for 64 needed elements
 -- dma->port
dim[0]: stride=1, trip_cnt=5688/409600, stretch=0
innermost: current=902336, acc_size=0/1, port=10
 in_port=10 (A ) repeat_in=1 stretch=0               ACTIVE
4239825	acc0 request for dc4c0 for 64 needed elements
 -- dma->port
dim[0]: stride=1, trip_cnt=5752/409600, stretch=0
innermost: current=902400, acc_size=0/1, port=10
 in_port=10 (A ) repeat_in=1 stretch=0               ACTIVE
4239826	acc0 request for dc500 for 64 needed elements
 -- dma->port
dim[0]: stride=1, trip_cnt=5816/409600, stretch=0
innermost: current=902464, acc_size=0/1, port=10
 in_port=10 (A ) repeat_in=1 stretch=0               ACTIVE
4239827	acc0 request for dc540 for 64 needed elements
 -- dma->port
dim[0]: stride=1, trip_cnt=5880/409600, stretch=0
innermost: current=902528, acc_size=0/1, port=10
 in_port=10 (A ) repeat_in=1 stretch=0               ACTIVE
4239828	acc0 request for dc580 for 64 needed elements
 -- dma->port
dim[0]: stride=1, trip_cnt=5944/409600, stretch=0
innermost: current=902592, acc_size=0/1, port=10
 in_port=10 (A ) repeat_in=1 stretch=0               ACTIVE
4239829	acc0 request for dc5c0 for 64 needed elements
 -- dma->port
dim[0]: stride=1, trip_cnt=6008/409600, stretch=0
innermost: current=902656, acc_size=0/1, port=10
 in_port=10 (A ) repeat_in=1 stretch=0               ACTIVE
4239830	acc0 request for dc600 for 64 needed elements
 -- dma->port
dim[0]: stride=1, trip_cnt=6072/409600, stretch=0
innermost: current=902720, acc_size=0/1, port=10
 in_port=10 (A ) repeat_in=1 stretch=0               ACTIVE
4239847	acc0 response for cc0c0for port 10, size in bytes: 64 elements
4239873	acc0 response for cc100for port 10, size in bytes: 64 elements
4239937	acc0 response for cc140for port 10, size in bytes: 64 elements
4240001	acc0 response for cc180for port 10, size in bytes: 64 elements
4240065	acc0 response for cc1c0for port 10, size in bytes: 64 elements
4240129	acc0 response for cc200for port 10, size in bytes: 64 elements
4240193	acc0 response for cc240for port 10, size in bytes: 64 elements
4240257	acc0 response for cc280for port 10, size in bytes: 64 elements
4240321	acc0 response for cc2c0for port 10, size in bytes: 64 elements
4240385	acc0 response for cc300for port 10, size in bytes: 64 elements
4240449	acc0 response for cc340for port 10, size in bytes: 64 elements
4240513	acc0 response for cc380for port 10, size in bytes: 64 elements
4240577	acc0 response for cc3c0for port 10, size in bytes: 64 elements
4240641	acc0 response for cc400for port 10, size in bytes: 64 elements
4240705	acc0 response for cc440for port 10, size in bytes: 64 elements
4240769	acc0 response for cc480for port 10, size in bytes: 64 elements
4240833	acc0 response for cc4c0for port 10, size in bytes: 64 elements
4240897	acc0 response for cc500for port 10, size in bytes: 64 elements
4240961	acc0 response for cc540for port 10, size in bytes: 64 elements
4241025	acc0 response for cc580for port 10, size in bytes: 64 elements
4241089	acc0 response for cc5c0for port 10, size in bytes: 64 elements
4241153	acc0 response for cc600for port 10, size in bytes: 64 elements
4241217	acc0 request for dc640 for 64 needed elements
 -- dma->port
dim[0]: stride=1, trip_cnt=6136/409600, stretch=0
innermost: current=902784, acc_size=0/1, port=10
 in_port=10 (A ) repeat_in=1 stretch=0               ACTIVE
4241218	acc0 request for dc680 for 64 needed elements
 -- dma->port
dim[0]: stride=1, trip_cnt=6200/409600, stretch=0
innermost: current=902848, acc_size=0/1, port=10
 in_port=10 (A ) repeat_in=1 stretch=0               ACTIVE
4241219	acc0 request for dc6c0 for 64 needed elements
 -- dma->port
dim[0]: stride=1, trip_cnt=6264/409600, stretch=0
innermost: current=902912, acc_size=0/1, port=10
 in_port=10 (A ) repeat_in=1 stretch=0               ACTIVE
4241220	acc0 request for dc700 for 64 needed elements
 -- dma->port
dim[0]: stride=1, trip_cnt=6328/409600, stretch=0
innermost: current=902976, acc_size=0/1, port=10
 in_port=10 (A ) repeat_in=1 stretch=0               ACTIVE
4241221	acc0 request for dc740 for 64 needed elements
 -- dma->port
dim[0]: stride=1, trip_cnt=6392/409600, stretch=0
innermost: current=903040, acc_size=0/1, port=10
 in_port=10 (A ) repeat_in=1 stretch=0               ACTIVE
4241222	acc0 request for dc780 for 64 needed elements
 -- dma->port
dim[0]: stride=1, trip_cnt=6456/409600, stretch=0
innermost: current=903104, acc_size=0/1, port=10
 in_port=10 (A ) repeat_in=1 stretch=0               ACTIVE
4241223	acc0 request for dc7c0 for 64 needed elements
 -- dma->port
dim[0]: stride=1, trip_cnt=6520/409600, stretch=0
innermost: current=903168, acc_size=0/1, port=10
 in_port=10 (A ) repeat_in=1 stretch=0               ACTIVE
4241224	acc0 request for dc800 for 64 needed elements
 -- dma->port
dim[0]: stride=1, trip_cnt=6584/409600, stretch=0
innermost: current=903232, acc_size=0/1, port=10
 in_port=10 (A ) repeat_in=1 stretch=0               ACTIVE
4241225	acc0 request for dc840 for 64 needed elements
 -- dma->port
dim[0]: stride=1, trip_cnt=6648/409600, stretch=0
innermost: current=903296, acc_size=0/1, port=10
 in_port=10 (A ) repeat_in=1 stretch=0               ACTIVE
4241226	acc0 request for dc880 for 64 needed elements
 -- dma->port
dim[0]: stride=1, trip_cnt=6712/409600, stretch=0
innermost: current=903360, acc_size=0/1, port=10
 in_port=10 (A ) repeat_in=1 stretch=0               ACTIVE
4241227	acc0 request for dc8c0 for 64 needed elements
 -- dma->port
dim[0]: stride=1, trip_cnt=6776/409600, stretch=0
innermost: current=903424, acc_size=0/1, port=10
 in_port=10 (A ) repeat_in=1 stretch=0               ACTIVE
4241228	acc0 request for dc900 for 64 needed elements
 -- dma->port
dim[0]: stride=1, trip_cnt=6840/409600, stretch=0
innermost: current=903488, acc_size=0/1, port=10
 in_port=10 (A ) repeat_in=1 stretch=0               ACTIVE
4241229	acc0 request for dc940 for 64 needed elements
 -- dma->port
dim[0]: stride=1, trip_cnt=6904/409600, stretch=0
innermost: current=903552, acc_size=0/1, port=10
 in_port=10 (A ) repeat_in=1 stretch=0               ACTIVE
4241230	acc0 request for dc980 for 64 needed elements
 -- dma->port
dim[0]: stride=1, trip_cnt=6968/409600, stretch=0
innermost: current=903616, acc_size=0/1, port=10
 in_port=10 (A ) repeat_in=1 stretch=0               ACTIVE
4241231	acc0 request for dc9c0 for 64 needed elements
 -- dma->port
dim[0]: stride=1, trip_cnt=7032/409600, stretch=0
innermost: current=903680, acc_size=0/1, port=10
 in_port=10 (A ) repeat_in=1 stretch=0               ACTIVE
4241232	acc0 request for dca00 for 64 needed elements
 -- dma->port
dim[0]: stride=1, trip_cnt=7096/409600, stretch=0
innermost: current=903744, acc_size=0/1, port=10
 in_port=10 (A ) repeat_in=1 stretch=0               ACTIVE
4241233	acc0 request for dca40 for 64 needed elements
 -- dma->port
dim[0]: stride=1, trip_cnt=7160/409600, stretch=0
innermost: current=903808, acc_size=0/1, port=10
 in_port=10 (A ) repeat_in=1 stretch=0               ACTIVE
4241234	acc0 request for dca80 for 64 needed elements
 -- dma->port
dim[0]: stride=1, trip_cnt=7224/409600, stretch=0
innermost: current=903872, acc_size=0/1, port=10
 in_port=10 (A ) repeat_in=1 stretch=0               ACTIVE
4241235	acc0 request for dcac0 for 64 needed elements
 -- dma->port
dim[0]: stride=1, trip_cnt=7288/409600, stretch=0
innermost: current=903936, acc_size=0/1, port=10
 in_port=10 (A ) repeat_in=1 stretch=0               ACTIVE
4241236	acc0 request for dcb00 for 64 needed elements
 -- dma->port
dim[0]: stride=1, trip_cnt=7352/409600, stretch=0
innermost: current=904000, acc_size=0/1, port=10
 in_port=10 (A ) repeat_in=1 stretch=0               ACTIVE
4241237	acc0 request for dcb40 for 64 needed elements
 -- dma->port
dim[0]: stride=1, trip_cnt=7416/409600, stretch=0
innermost: current=904064, acc_size=0/1, port=10
 in_port=10 (A ) repeat_in=1 stretch=0               ACTIVE
4241238	acc0 request for dcb80 for 64 needed elements
 -- dma->port
dim[0]: stride=1, trip_cnt=7480/409600, stretch=0
innermost: current=904128, acc_size=0/1, port=10
 in_port=10 (A ) repeat_in=1 stretch=0               ACTIVE
4241255	acc0 response for cc640for port 10, size in bytes: 64 elements
4241281	acc0 response for cc680for port 10, size in bytes: 64 elements
4241345	acc0 response for cc6c0for port 10, size in bytes: 64 elements
4241409	acc0 response for cc700for port 10, size in bytes: 64 elements
4241473	acc0 response for cc740for port 10, size in bytes: 64 elements
4241537	acc0 response for cc780for port 10, size in bytes: 64 elements
4241601	acc0 response for cc7c0for port 10, size in bytes: 64 elements
4241665	acc0 response for cc800for port 10, size in bytes: 64 elements
4241729	acc0 response for cc840for port 10, size in bytes: 64 elements
4241793	acc0 response for cc880for port 10, size in bytes: 64 elements
4241857	acc0 response for cc8c0for port 10, size in bytes: 64 elements
4241921	acc0 response for cc900for port 10, size in bytes: 64 elements
4241985	acc0 response for cc940for port 10, size in bytes: 64 elements
4242049	acc0 response for cc980for port 10, size in bytes: 64 elements
4242113	acc0 response for cc9c0for port 10, size in bytes: 64 elements
4242177	acc0 response for cca00for port 10, size in bytes: 64 elements
4242241	acc0 response for cca40for port 10, size in bytes: 64 elements
4242305	acc0 response for cca80for port 10, size in bytes: 64 elements
4242369	acc0 response for ccac0for port 10, size in bytes: 64 elements
4242433	acc0 response for ccb00for port 10, size in bytes: 64 elements
4242497	acc0 response for ccb40for port 10, size in bytes: 64 elements
4242561	acc0 response for ccb80for port 10, size in bytes: 64 elements
4242625	acc0 request for dcbc0 for 64 needed elements
 -- dma->port
dim[0]: stride=1, trip_cnt=7544/409600, stretch=0
innermost: current=904192, acc_size=0/1, port=10
 in_port=10 (A ) repeat_in=1 stretch=0               ACTIVE
4242626	acc0 request for dcc00 for 64 needed elements
 -- dma->port
dim[0]: stride=1, trip_cnt=7608/409600, stretch=0
innermost: current=904256, acc_size=0/1, port=10
 in_port=10 (A ) repeat_in=1 stretch=0               ACTIVE
4242627	acc0 request for dcc40 for 64 needed elements
 -- dma->port
dim[0]: stride=1, trip_cnt=7672/409600, stretch=0
innermost: current=904320, acc_size=0/1, port=10
 in_port=10 (A ) repeat_in=1 stretch=0               ACTIVE
4242628	acc0 request for dcc80 for 64 needed elements
 -- dma->port
dim[0]: stride=1, trip_cnt=7736/409600, stretch=0
innermost: current=904384, acc_size=0/1, port=10
 in_port=10 (A ) repeat_in=1 stretch=0               ACTIVE
4242629	acc0 request for dccc0 for 64 needed elements
 -- dma->port
dim[0]: stride=1, trip_cnt=7800/409600, stretch=0
innermost: current=904448, acc_size=0/1, port=10
 in_port=10 (A ) repeat_in=1 stretch=0               ACTIVE
4242630	acc0 request for dcd00 for 64 needed elements
 -- dma->port
dim[0]: stride=1, trip_cnt=7864/409600, stretch=0
innermost: current=904512, acc_size=0/1, port=10
 in_port=10 (A ) repeat_in=1 stretch=0               ACTIVE
4242631	acc0 request for dcd40 for 64 needed elements
 -- dma->port
dim[0]: stride=1, trip_cnt=7928/409600, stretch=0
innermost: current=904576, acc_size=0/1, port=10
 in_port=10 (A ) repeat_in=1 stretch=0               ACTIVE
4242632	acc0 request for dcd80 for 64 needed elements
 -- dma->port
dim[0]: stride=1, trip_cnt=7992/409600, stretch=0
innermost: current=904640, acc_size=0/1, port=10
 in_port=10 (A ) repeat_in=1 stretch=0               ACTIVE
4242633	acc0 request for dcdc0 for 64 needed elements
 -- dma->port
dim[0]: stride=1, trip_cnt=8056/409600, stretch=0
innermost: current=904704, acc_size=0/1, port=10
 in_port=10 (A ) repeat_in=1 stretch=0               ACTIVE
4242634	acc0 request for dce00 for 64 needed elements
 -- dma->port
dim[0]: stride=1, trip_cnt=8120/409600, stretch=0
innermost: current=904768, acc_size=0/1, port=10
 in_port=10 (A ) repeat_in=1 stretch=0               ACTIVE
4242635	acc0 request for dce40 for 64 needed elements
 -- dma->port
dim[0]: stride=1, trip_cnt=8184/409600, stretch=0
innermost: current=904832, acc_size=0/1, port=10
 in_port=10 (A ) repeat_in=1 stretch=0               ACTIVE
4242636	acc0 request for dce80 for 64 needed elements
 -- dma->port
dim[0]: stride=1, trip_cnt=8248/409600, stretch=0
innermost: current=904896, acc_size=0/1, port=10
 in_port=10 (A ) repeat_in=1 stretch=0               ACTIVE
4242637	acc0 request for dcec0 for 64 needed elements
 -- dma->port
dim[0]: stride=1, trip_cnt=8312/409600, stretch=0
innermost: current=904960, acc_size=0/1, port=10
 in_port=10 (A ) repeat_in=1 stretch=0               ACTIVE
4242638	acc0 request for dcf00 for 64 needed elements
 -- dma->port
dim[0]: stride=1, trip_cnt=8376/409600, stretch=0
innermost: current=905024, acc_size=0/1, port=10
 in_port=10 (A ) repeat_in=1 stretch=0               ACTIVE
4242639	acc0 request for dcf40 for 64 needed elements
 -- dma->port
dim[0]: stride=1, trip_cnt=8440/409600, stretch=0
innermost: current=905088, acc_size=0/1, port=10
 in_port=10 (A ) repeat_in=1 stretch=0               ACTIVE
4242640	acc0 request for dcf80 for 64 needed elements
 -- dma->port
dim[0]: stride=1, trip_cnt=8504/409600, stretch=0
innermost: current=905152, acc_size=0/1, port=10
 in_port=10 (A ) repeat_in=1 stretch=0               ACTIVE
4242641	acc0 request for dcfc0 for 64 needed elements
 -- dma->port
dim[0]: stride=1, trip_cnt=8568/409600, stretch=0
innermost: current=905216, acc_size=0/1, port=10
 in_port=10 (A ) repeat_in=1 stretch=0               ACTIVE
4242642	acc0 request for dd000 for 64 needed elements
 -- dma->port
dim[0]: stride=1, trip_cnt=8632/409600, stretch=0
innermost: current=905280, acc_size=0/1, port=10
 in_port=10 (A ) repeat_in=1 stretch=0               ACTIVE
4242643	acc0 request for dd040 for 64 needed elements
 -- dma->port
dim[0]: stride=1, trip_cnt=8696/409600, stretch=0
innermost: current=905344, acc_size=0/1, port=10
 in_port=10 (A ) repeat_in=1 stretch=0               ACTIVE
4242644	acc0 request for dd080 for 64 needed elements
 -- dma->port
dim[0]: stride=1, trip_cnt=8760/409600, stretch=0
innermost: current=905408, acc_size=0/1, port=10
 in_port=10 (A ) repeat_in=1 stretch=0               ACTIVE
4242645	acc0 request for dd0c0 for 64 needed elements
 -- dma->port
dim[0]: stride=1, trip_cnt=8824/409600, stretch=0
innermost: current=905472, acc_size=0/1, port=10
 in_port=10 (A ) repeat_in=1 stretch=0               ACTIVE
4242646	acc0 request for dd100 for 64 needed elements
 -- dma->port
dim[0]: stride=1, trip_cnt=8888/409600, stretch=0
innermost: current=905536, acc_size=0/1, port=10
 in_port=10 (A ) repeat_in=1 stretch=0               ACTIVE
4242663	acc0 response for ccbc0for port 10, size in bytes: 64 elements
4242689	acc0 response for ccc00for port 10, size in bytes: 64 elements
4242753	acc0 response for ccc40for port 10, size in bytes: 64 elements
4242817	acc0 response for ccc80for port 10, size in bytes: 64 elements
4242881	acc0 response for cccc0for port 10, size in bytes: 64 elements
4242945	acc0 response for ccd00for port 10, size in bytes: 64 elements
4243009	acc0 response for ccd40for port 10, size in bytes: 64 elements
4243073	acc0 response for ccd80for port 10, size in bytes: 64 elements
4243137	acc0 response for ccdc0for port 10, size in bytes: 64 elements
4243201	acc0 response for cce00for port 10, size in bytes: 64 elements
4243265	acc0 response for cce40for port 10, size in bytes: 64 elements
4243329	acc0 response for cce80for port 10, size in bytes: 64 elements
4243393	acc0 response for ccec0for port 10, size in bytes: 64 elements
4243457	acc0 response for ccf00for port 10, size in bytes: 64 elements
4243521	acc0 response for ccf40for port 10, size in bytes: 64 elements
4243585	acc0 response for ccf80for port 10, size in bytes: 64 elements
4243649	acc0 response for ccfc0for port 10, size in bytes: 64 elements
4243713	acc0 response for cd000for port 10, size in bytes: 64 elements
4243777	acc0 response for cd040for port 10, size in bytes: 64 elements
4243841	acc0 response for cd080for port 10, size in bytes: 64 elements
4243905	acc0 response for cd0c0for port 10, size in bytes: 64 elements
4243969	acc0 response for cd100for port 10, size in bytes: 64 elements
4244033	acc0 request for dd140 for 64 needed elements
 -- dma->port
dim[0]: stride=1, trip_cnt=8952/409600, stretch=0
innermost: current=905600, acc_size=0/1, port=10
 in_port=10 (A ) repeat_in=1 stretch=0               ACTIVE
4244034	acc0 request for dd180 for 64 needed elements
 -- dma->port
dim[0]: stride=1, trip_cnt=9016/409600, stretch=0
innermost: current=905664, acc_size=0/1, port=10
 in_port=10 (A ) repeat_in=1 stretch=0               ACTIVE
4244035	acc0 request for dd1c0 for 64 needed elements
 -- dma->port
dim[0]: stride=1, trip_cnt=9080/409600, stretch=0
innermost: current=905728, acc_size=0/1, port=10
 in_port=10 (A ) repeat_in=1 stretch=0               ACTIVE
4244036	acc0 request for dd200 for 64 needed elements
 -- dma->port
dim[0]: stride=1, trip_cnt=9144/409600, stretch=0
innermost: current=905792, acc_size=0/1, port=10
 in_port=10 (A ) repeat_in=1 stretch=0               ACTIVE
4244037	acc0 request for dd240 for 64 needed elements
 -- dma->port
dim[0]: stride=1, trip_cnt=9208/409600, stretch=0
innermost: current=905856, acc_size=0/1, port=10
 in_port=10 (A ) repeat_in=1 stretch=0               ACTIVE
4244038	acc0 request for dd280 for 64 needed elements
 -- dma->port
dim[0]: stride=1, trip_cnt=9272/409600, stretch=0
innermost: current=905920, acc_size=0/1, port=10
 in_port=10 (A ) repeat_in=1 stretch=0               ACTIVE
4244039	acc0 request for dd2c0 for 64 needed elements
 -- dma->port
dim[0]: stride=1, trip_cnt=9336/409600, stretch=0
innermost: current=905984, acc_size=0/1, port=10
 in_port=10 (A ) repeat_in=1 stretch=0               ACTIVE
4244040	acc0 request for dd300 for 64 needed elements
 -- dma->port
dim[0]: stride=1, trip_cnt=9400/409600, stretch=0
innermost: current=906048, acc_size=0/1, port=10
 in_port=10 (A ) repeat_in=1 stretch=0               ACTIVE
4244041	acc0 request for dd340 for 64 needed elements
 -- dma->port
dim[0]: stride=1, trip_cnt=9464/409600, stretch=0
innermost: current=906112, acc_size=0/1, port=10
 in_port=10 (A ) repeat_in=1 stretch=0               ACTIVE
4244042	acc0 request for dd380 for 64 needed elements
 -- dma->port
dim[0]: stride=1, trip_cnt=9528/409600, stretch=0
innermost: current=906176, acc_size=0/1, port=10
 in_port=10 (A ) repeat_in=1 stretch=0               ACTIVE
4244043	acc0 request for dd3c0 for 64 needed elements
 -- dma->port
dim[0]: stride=1, trip_cnt=9592/409600, stretch=0
innermost: current=906240, acc_size=0/1, port=10
 in_port=10 (A ) repeat_in=1 stretch=0               ACTIVE
4244044	acc0 request for dd400 for 64 needed elements
 -- dma->port
dim[0]: stride=1, trip_cnt=9656/409600, stretch=0
innermost: current=906304, acc_size=0/1, port=10
 in_port=10 (A ) repeat_in=1 stretch=0               ACTIVE
4244045	acc0 request for dd440 for 64 needed elements
 -- dma->port
dim[0]: stride=1, trip_cnt=9720/409600, stretch=0
innermost: current=906368, acc_size=0/1, port=10
 in_port=10 (A ) repeat_in=1 stretch=0               ACTIVE
4244046	acc0 request for dd480 for 64 needed elements
 -- dma->port
dim[0]: stride=1, trip_cnt=9784/409600, stretch=0
innermost: current=906432, acc_size=0/1, port=10
 in_port=10 (A ) repeat_in=1 stretch=0               ACTIVE
4244047	acc0 request for dd4c0 for 64 needed elements
 -- dma->port
dim[0]: stride=1, trip_cnt=9848/409600, stretch=0
innermost: current=906496, acc_size=0/1, port=10
 in_port=10 (A ) repeat_in=1 stretch=0               ACTIVE
4244048	acc0 request for dd500 for 64 needed elements
 -- dma->port
dim[0]: stride=1, trip_cnt=9912/409600, stretch=0
innermost: current=906560, acc_size=0/1, port=10
 in_port=10 (A ) repeat_in=1 stretch=0               ACTIVE
4244049	acc0 request for dd540 for 64 needed elements
 -- dma->port
dim[0]: stride=1, trip_cnt=9976/409600, stretch=0
innermost: current=906624, acc_size=0/1, port=10
 in_port=10 (A ) repeat_in=1 stretch=0               ACTIVE
4244050	acc0 request for dd580 for 64 needed elements
 -- dma->port
dim[0]: stride=1, trip_cnt=10040/409600, stretch=0
innermost: current=906688, acc_size=0/1, port=10
 in_port=10 (A ) repeat_in=1 stretch=0               ACTIVE
4244051	acc0 request for dd5c0 for 64 needed elements
 -- dma->port
dim[0]: stride=1, trip_cnt=10104/409600, stretch=0
innermost: current=906752, acc_size=0/1, port=10
 in_port=10 (A ) repeat_in=1 stretch=0               ACTIVE
4244052	acc0 request for dd600 for 64 needed elements
 -- dma->port
dim[0]: stride=1, trip_cnt=10168/409600, stretch=0
innermost: current=906816, acc_size=0/1, port=10
 in_port=10 (A ) repeat_in=1 stretch=0               ACTIVE
4244053	acc0 request for dd640 for 64 needed elements
 -- dma->port
dim[0]: stride=1, trip_cnt=10232/409600, stretch=0
innermost: current=906880, acc_size=0/1, port=10
 in_port=10 (A ) repeat_in=1 stretch=0               ACTIVE
4244054	acc0 request for dd680 for 64 needed elements
 -- dma->port
dim[0]: stride=1, trip_cnt=10296/409600, stretch=0
innermost: current=906944, acc_size=0/1, port=10
 in_port=10 (A ) repeat_in=1 stretch=0               ACTIVE
4244071	acc0 response for cd140for port 10, size in bytes: 64 elements
4244097	acc0 response for cd180for port 10, size in bytes: 64 elements
4244161	acc0 response for cd1c0for port 10, size in bytes: 64 elements
4244225	acc0 response for cd200for port 10, size in bytes: 64 elements
4244289	acc0 response for cd240for port 10, size in bytes: 64 elements
4244353	acc0 response for cd280for port 10, size in bytes: 64 elements
4244417	acc0 response for cd2c0for port 10, size in bytes: 64 elements
4244481	acc0 response for cd300for port 10, size in bytes: 64 elements
4244545	acc0 response for cd340for port 10, size in bytes: 64 elements
4244609	acc0 response for cd380for port 10, size in bytes: 64 elements
4244673	acc0 response for cd3c0for port 10, size in bytes: 64 elements
4244737	acc0 response for cd400for port 10, size in bytes: 64 elements
4244801	acc0 response for cd440for port 10, size in bytes: 64 elements
4244865	acc0 response for cd480for port 10, size in bytes: 64 elements
4244929	acc0 response for cd4c0for port 10, size in bytes: 64 elements
4244993	acc0 response for cd500for port 10, size in bytes: 64 elements
4245057	acc0 response for cd540for port 10, size in bytes: 64 elements
4245121	acc0 response for cd580for port 10, size in bytes: 64 elements
4245185	acc0 response for cd5c0for port 10, size in bytes: 64 elements
4245249	acc0 response for cd600for port 10, size in bytes: 64 elements
4245313	acc0 response for cd640for port 10, size in bytes: 64 elements
4245377	acc0 response for cd680for port 10, size in bytes: 64 elements
4245441	acc0 request for dd6c0 for 64 needed elements
 -- dma->port
dim[0]: stride=1, trip_cnt=10360/409600, stretch=0
innermost: current=907008, acc_size=0/1, port=10
 in_port=10 (A ) repeat_in=1 stretch=0               ACTIVE
4245442	acc0 request for dd700 for 64 needed elements
 -- dma->port
dim[0]: stride=1, trip_cnt=10424/409600, stretch=0
innermost: current=907072, acc_size=0/1, port=10
 in_port=10 (A ) repeat_in=1 stretch=0               ACTIVE
4245443	acc0 request for dd740 for 64 needed elements
 -- dma->port
dim[0]: stride=1, trip_cnt=10488/409600, stretch=0
innermost: current=907136, acc_size=0/1, port=10
 in_port=10 (A ) repeat_in=1 stretch=0               ACTIVE
4245444	acc0 request for dd780 for 64 needed elements
 -- dma->port
dim[0]: stride=1, trip_cnt=10552/409600, stretch=0
innermost: current=907200, acc_size=0/1, port=10
 in_port=10 (A ) repeat_in=1 stretch=0               ACTIVE
4245445	acc0 request for dd7c0 for 64 needed elements
 -- dma->port
dim[0]: stride=1, trip_cnt=10616/409600, stretch=0
innermost: current=907264, acc_size=0/1, port=10
 in_port=10 (A ) repeat_in=1 stretch=0               ACTIVE
4245446	acc0 request for dd800 for 64 needed elements
 -- dma->port
dim[0]: stride=1, trip_cnt=10680/409600, stretch=0
innermost: current=907328, acc_size=0/1, port=10
 in_port=10 (A ) repeat_in=1 stretch=0               ACTIVE
4245447	acc0 request for dd840 for 64 needed elements
 -- dma->port
dim[0]: stride=1, trip_cnt=10744/409600, stretch=0
innermost: current=907392, acc_size=0/1, port=10
 in_port=10 (A ) repeat_in=1 stretch=0               ACTIVE
4245448	acc0 request for dd880 for 64 needed elements
 -- dma->port
dim[0]: stride=1, trip_cnt=10808/409600, stretch=0
innermost: current=907456, acc_size=0/1, port=10
 in_port=10 (A ) repeat_in=1 stretch=0               ACTIVE
4245449	acc0 request for dd8c0 for 64 needed elements
 -- dma->port
dim[0]: stride=1, trip_cnt=10872/409600, stretch=0
innermost: current=907520, acc_size=0/1, port=10
 in_port=10 (A ) repeat_in=1 stretch=0               ACTIVE
4245450	acc0 request for dd900 for 64 needed elements
 -- dma->port
dim[0]: stride=1, trip_cnt=10936/409600, stretch=0
innermost: current=907584, acc_size=0/1, port=10
 in_port=10 (A ) repeat_in=1 stretch=0               ACTIVE
4245451	acc0 request for dd940 for 64 needed elements
 -- dma->port
dim[0]: stride=1, trip_cnt=11000/409600, stretch=0
innermost: current=907648, acc_size=0/1, port=10
 in_port=10 (A ) repeat_in=1 stretch=0               ACTIVE
4245452	acc0 request for dd980 for 64 needed elements
 -- dma->port
dim[0]: stride=1, trip_cnt=11064/409600, stretch=0
innermost: current=907712, acc_size=0/1, port=10
 in_port=10 (A ) repeat_in=1 stretch=0               ACTIVE
4245453	acc0 request for dd9c0 for 64 needed elements
 -- dma->port
dim[0]: stride=1, trip_cnt=11128/409600, stretch=0
innermost: current=907776, acc_size=0/1, port=10
 in_port=10 (A ) repeat_in=1 stretch=0               ACTIVE
4245454	acc0 request for dda00 for 64 needed elements
 -- dma->port
dim[0]: stride=1, trip_cnt=11192/409600, stretch=0
innermost: current=907840, acc_size=0/1, port=10
 in_port=10 (A ) repeat_in=1 stretch=0               ACTIVE
4245455	acc0 request for dda40 for 64 needed elements
 -- dma->port
dim[0]: stride=1, trip_cnt=11256/409600, stretch=0
innermost: current=907904, acc_size=0/1, port=10
 in_port=10 (A ) repeat_in=1 stretch=0               ACTIVE
4245456	acc0 request for dda80 for 64 needed elements
 -- dma->port
dim[0]: stride=1, trip_cnt=11320/409600, stretch=0
innermost: current=907968, acc_size=0/1, port=10
 in_port=10 (A ) repeat_in=1 stretch=0               ACTIVE
4245457	acc0 request for ddac0 for 64 needed elements
 -- dma->port
dim[0]: stride=1, trip_cnt=11384/409600, stretch=0
innermost: current=908032, acc_size=0/1, port=10
 in_port=10 (A ) repeat_in=1 stretch=0               ACTIVE
4245458	acc0 request for ddb00 for 64 needed elements
 -- dma->port
dim[0]: stride=1, trip_cnt=11448/409600, stretch=0
innermost: current=908096, acc_size=0/1, port=10
 in_port=10 (A ) repeat_in=1 stretch=0               ACTIVE
4245459	acc0 request for ddb40 for 64 needed elements
 -- dma->port
dim[0]: stride=1, trip_cnt=11512/409600, stretch=0
innermost: current=908160, acc_size=0/1, port=10
 in_port=10 (A ) repeat_in=1 stretch=0               ACTIVE
4245460	acc0 request for ddb80 for 64 needed elements
 -- dma->port
dim[0]: stride=1, trip_cnt=11576/409600, stretch=0
innermost: current=908224, acc_size=0/1, port=10
 in_port=10 (A ) repeat_in=1 stretch=0               ACTIVE
4245461	acc0 request for ddbc0 for 64 needed elements
 -- dma->port
dim[0]: stride=1, trip_cnt=11640/409600, stretch=0
innermost: current=908288, acc_size=0/1, port=10
 in_port=10 (A ) repeat_in=1 stretch=0               ACTIVE
4245462	acc0 request for ddc00 for 64 needed elements
 -- dma->port
dim[0]: stride=1, trip_cnt=11704/409600, stretch=0
innermost: current=908352, acc_size=0/1, port=10
 in_port=10 (A ) repeat_in=1 stretch=0               ACTIVE
4245479	acc0 response for cd6c0for port 10, size in bytes: 64 elements
4245505	acc0 response for cd700for port 10, size in bytes: 64 elements
4245569	acc0 response for cd740for port 10, size in bytes: 64 elements
4245633	acc0 response for cd780for port 10, size in bytes: 64 elements
4245697	acc0 response for cd7c0for port 10, size in bytes: 64 elements
4245761	acc0 response for cd800for port 10, size in bytes: 64 elements
4245825	acc0 response for cd840for port 10, size in bytes: 64 elements
4245889	acc0 response for cd880for port 10, size in bytes: 64 elements
4245953	acc0 response for cd8c0for port 10, size in bytes: 64 elements
4246017	acc0 response for cd900for port 10, size in bytes: 64 elements
4246081	acc0 response for cd940for port 10, size in bytes: 64 elements
4246145	acc0 response for cd980for port 10, size in bytes: 64 elements
4246209	acc0 response for cd9c0for port 10, size in bytes: 64 elements
4246273	acc0 response for cda00for port 10, size in bytes: 64 elements
4246337	acc0 response for cda40for port 10, size in bytes: 64 elements
4246401	acc0 response for cda80for port 10, size in bytes: 64 elements
4246465	acc0 response for cdac0for port 10, size in bytes: 64 elements
4246529	acc0 response for cdb00for port 10, size in bytes: 64 elements
4246593	acc0 response for cdb40for port 10, size in bytes: 64 elements
4246657	acc0 response for cdb80for port 10, size in bytes: 64 elements
4246721	acc0 response for cdbc0for port 10, size in bytes: 64 elements
4246785	acc0 response for cdc00for port 10, size in bytes: 64 elements
4246849	acc0 request for ddc40 for 64 needed elements
 -- dma->port
dim[0]: stride=1, trip_cnt=11768/409600, stretch=0
innermost: current=908416, acc_size=0/1, port=10
 in_port=10 (A ) repeat_in=1 stretch=0               ACTIVE
4246850	acc0 request for ddc80 for 64 needed elements
 -- dma->port
dim[0]: stride=1, trip_cnt=11832/409600, stretch=0
innermost: current=908480, acc_size=0/1, port=10
 in_port=10 (A ) repeat_in=1 stretch=0               ACTIVE
4246851	acc0 request for ddcc0 for 64 needed elements
 -- dma->port
dim[0]: stride=1, trip_cnt=11896/409600, stretch=0
innermost: current=908544, acc_size=0/1, port=10
 in_port=10 (A ) repeat_in=1 stretch=0               ACTIVE
4246852	acc0 request for ddd00 for 64 needed elements
 -- dma->port
dim[0]: stride=1, trip_cnt=11960/409600, stretch=0
innermost: current=908608, acc_size=0/1, port=10
 in_port=10 (A ) repeat_in=1 stretch=0               ACTIVE
4246853	acc0 request for ddd40 for 64 needed elements
 -- dma->port
dim[0]: stride=1, trip_cnt=12024/409600, stretch=0
innermost: current=908672, acc_size=0/1, port=10
 in_port=10 (A ) repeat_in=1 stretch=0               ACTIVE
4246854	acc0 request for ddd80 for 64 needed elements
 -- dma->port
dim[0]: stride=1, trip_cnt=12088/409600, stretch=0
innermost: current=908736, acc_size=0/1, port=10
 in_port=10 (A ) repeat_in=1 stretch=0               ACTIVE
4246855	acc0 request for dddc0 for 64 needed elements
 -- dma->port
dim[0]: stride=1, trip_cnt=12152/409600, stretch=0
innermost: current=908800, acc_size=0/1, port=10
 in_port=10 (A ) repeat_in=1 stretch=0               ACTIVE
4246856	acc0 request for dde00 for 64 needed elements
 -- dma->port
dim[0]: stride=1, trip_cnt=12216/409600, stretch=0
innermost: current=908864, acc_size=0/1, port=10
 in_port=10 (A ) repeat_in=1 stretch=0               ACTIVE
4246857	acc0 request for dde40 for 64 needed elements
 -- dma->port
dim[0]: stride=1, trip_cnt=12280/409600, stretch=0
innermost: current=908928, acc_size=0/1, port=10
 in_port=10 (A ) repeat_in=1 stretch=0               ACTIVE
4246858	acc0 request for dde80 for 64 needed elements
 -- dma->port
dim[0]: stride=1, trip_cnt=12344/409600, stretch=0
innermost: current=908992, acc_size=0/1, port=10
 in_port=10 (A ) repeat_in=1 stretch=0               ACTIVE
4246859	acc0 request for ddec0 for 64 needed elements
 -- dma->port
dim[0]: stride=1, trip_cnt=12408/409600, stretch=0
innermost: current=909056, acc_size=0/1, port=10
 in_port=10 (A ) repeat_in=1 stretch=0               ACTIVE
4246860	acc0 request for ddf00 for 64 needed elements
 -- dma->port
dim[0]: stride=1, trip_cnt=12472/409600, stretch=0
innermost: current=909120, acc_size=0/1, port=10
 in_port=10 (A ) repeat_in=1 stretch=0               ACTIVE
4246861	acc0 request for ddf40 for 64 needed elements
 -- dma->port
dim[0]: stride=1, trip_cnt=12536/409600, stretch=0
innermost: current=909184, acc_size=0/1, port=10
 in_port=10 (A ) repeat_in=1 stretch=0               ACTIVE
4246862	acc0 request for ddf80 for 64 needed elements
 -- dma->port
dim[0]: stride=1, trip_cnt=12600/409600, stretch=0
innermost: current=909248, acc_size=0/1, port=10
 in_port=10 (A ) repeat_in=1 stretch=0               ACTIVE
4246863	acc0 request for ddfc0 for 64 needed elements
 -- dma->port
dim[0]: stride=1, trip_cnt=12664/409600, stretch=0
innermost: current=909312, acc_size=0/1, port=10
 in_port=10 (A ) repeat_in=1 stretch=0               ACTIVE
4246864	acc0 request for de000 for 64 needed elements
 -- dma->port
dim[0]: stride=1, trip_cnt=12728/409600, stretch=0
innermost: current=909376, acc_size=0/1, port=10
 in_port=10 (A ) repeat_in=1 stretch=0               ACTIVE
4246865	acc0 request for de040 for 64 needed elements
 -- dma->port
dim[0]: stride=1, trip_cnt=12792/409600, stretch=0
innermost: current=909440, acc_size=0/1, port=10
 in_port=10 (A ) repeat_in=1 stretch=0               ACTIVE
4246866	acc0 request for de080 for 64 needed elements
 -- dma->port
dim[0]: stride=1, trip_cnt=12856/409600, stretch=0
innermost: current=909504, acc_size=0/1, port=10
 in_port=10 (A ) repeat_in=1 stretch=0               ACTIVE
4246867	acc0 request for de0c0 for 64 needed elements
 -- dma->port
dim[0]: stride=1, trip_cnt=12920/409600, stretch=0
innermost: current=909568, acc_size=0/1, port=10
 in_port=10 (A ) repeat_in=1 stretch=0               ACTIVE
4246868	acc0 request for de100 for 64 needed elements
 -- dma->port
dim[0]: stride=1, trip_cnt=12984/409600, stretch=0
innermost: current=909632, acc_size=0/1, port=10
 in_port=10 (A ) repeat_in=1 stretch=0               ACTIVE
4246869	acc0 request for de140 for 64 needed elements
 -- dma->port
dim[0]: stride=1, trip_cnt=13048/409600, stretch=0
innermost: current=909696, acc_size=0/1, port=10
 in_port=10 (A ) repeat_in=1 stretch=0               ACTIVE
4246870	acc0 request for de180 for 64 needed elements
 -- dma->port
dim[0]: stride=1, trip_cnt=13112/409600, stretch=0
innermost: current=909760, acc_size=0/1, port=10
 in_port=10 (A ) repeat_in=1 stretch=0               ACTIVE
4246887	acc0 response for cdc40for port 10, size in bytes: 64 elements
4246913	acc0 response for cdc80for port 10, size in bytes: 64 elements
4246977	acc0 response for cdcc0for port 10, size in bytes: 64 elements
4247041	acc0 response for cdd00for port 10, size in bytes: 64 elements
4247105	acc0 response for cdd40for port 10, size in bytes: 64 elements
4247169	acc0 response for cdd80for port 10, size in bytes: 64 elements
4247233	acc0 response for cddc0for port 10, size in bytes: 64 elements
4247297	acc0 response for cde00for port 10, size in bytes: 64 elements
4247361	acc0 response for cde40for port 10, size in bytes: 64 elements
4247425	acc0 response for cde80for port 10, size in bytes: 64 elements
4247489	acc0 response for cdec0for port 10, size in bytes: 64 elements
4247553	acc0 response for cdf00for port 10, size in bytes: 64 elements
4247617	acc0 response for cdf40for port 10, size in bytes: 64 elements
4247681	acc0 response for cdf80for port 10, size in bytes: 64 elements
4247745	acc0 response for cdfc0for port 10, size in bytes: 64 elements
4247809	acc0 response for ce000for port 10, size in bytes: 64 elements
4247873	acc0 response for ce040for port 10, size in bytes: 64 elements
4247937	acc0 response for ce080for port 10, size in bytes: 64 elements
4248001	acc0 response for ce0c0for port 10, size in bytes: 64 elements
4248065	acc0 response for ce100for port 10, size in bytes: 64 elements
4248129	acc0 response for ce140for port 10, size in bytes: 64 elements
4248193	acc0 response for ce180for port 10, size in bytes: 64 elements
4248257	acc0 request for de1c0 for 64 needed elements
 -- dma->port
dim[0]: stride=1, trip_cnt=13176/409600, stretch=0
innermost: current=909824, acc_size=0/1, port=10
 in_port=10 (A ) repeat_in=1 stretch=0               ACTIVE
4248258	acc0 request for de200 for 64 needed elements
 -- dma->port
dim[0]: stride=1, trip_cnt=13240/409600, stretch=0
innermost: current=909888, acc_size=0/1, port=10
 in_port=10 (A ) repeat_in=1 stretch=0               ACTIVE
4248259	acc0 request for de240 for 64 needed elements
 -- dma->port
dim[0]: stride=1, trip_cnt=13304/409600, stretch=0
innermost: current=909952, acc_size=0/1, port=10
 in_port=10 (A ) repeat_in=1 stretch=0               ACTIVE
4248260	acc0 request for de280 for 64 needed elements
 -- dma->port
dim[0]: stride=1, trip_cnt=13368/409600, stretch=0
innermost: current=910016, acc_size=0/1, port=10
 in_port=10 (A ) repeat_in=1 stretch=0               ACTIVE
4248261	acc0 request for de2c0 for 64 needed elements
 -- dma->port
dim[0]: stride=1, trip_cnt=13432/409600, stretch=0
innermost: current=910080, acc_size=0/1, port=10
 in_port=10 (A ) repeat_in=1 stretch=0               ACTIVE
4248262	acc0 request for de300 for 64 needed elements
 -- dma->port
dim[0]: stride=1, trip_cnt=13496/409600, stretch=0
innermost: current=910144, acc_size=0/1, port=10
 in_port=10 (A ) repeat_in=1 stretch=0               ACTIVE
4248263	acc0 request for de340 for 64 needed elements
 -- dma->port
dim[0]: stride=1, trip_cnt=13560/409600, stretch=0
innermost: current=910208, acc_size=0/1, port=10
 in_port=10 (A ) repeat_in=1 stretch=0               ACTIVE
4248264	acc0 request for de380 for 64 needed elements
 -- dma->port
dim[0]: stride=1, trip_cnt=13624/409600, stretch=0
innermost: current=910272, acc_size=0/1, port=10
 in_port=10 (A ) repeat_in=1 stretch=0               ACTIVE
4248265	acc0 request for de3c0 for 64 needed elements
 -- dma->port
dim[0]: stride=1, trip_cnt=13688/409600, stretch=0
innermost: current=910336, acc_size=0/1, port=10
 in_port=10 (A ) repeat_in=1 stretch=0               ACTIVE
4248266	acc0 request for de400 for 64 needed elements
 -- dma->port
dim[0]: stride=1, trip_cnt=13752/409600, stretch=0
innermost: current=910400, acc_size=0/1, port=10
 in_port=10 (A ) repeat_in=1 stretch=0               ACTIVE
4248267	acc0 request for de440 for 64 needed elements
 -- dma->port
dim[0]: stride=1, trip_cnt=13816/409600, stretch=0
innermost: current=910464, acc_size=0/1, port=10
 in_port=10 (A ) repeat_in=1 stretch=0               ACTIVE
4248268	acc0 request for de480 for 64 needed elements
 -- dma->port
dim[0]: stride=1, trip_cnt=13880/409600, stretch=0
innermost: current=910528, acc_size=0/1, port=10
 in_port=10 (A ) repeat_in=1 stretch=0               ACTIVE
4248269	acc0 request for de4c0 for 64 needed elements
 -- dma->port
dim[0]: stride=1, trip_cnt=13944/409600, stretch=0
innermost: current=910592, acc_size=0/1, port=10
 in_port=10 (A ) repeat_in=1 stretch=0               ACTIVE
4248270	acc0 request for de500 for 64 needed elements
 -- dma->port
dim[0]: stride=1, trip_cnt=14008/409600, stretch=0
innermost: current=910656, acc_size=0/1, port=10
 in_port=10 (A ) repeat_in=1 stretch=0               ACTIVE
4248271	acc0 request for de540 for 64 needed elements
 -- dma->port
dim[0]: stride=1, trip_cnt=14072/409600, stretch=0
innermost: current=910720, acc_size=0/1, port=10
 in_port=10 (A ) repeat_in=1 stretch=0               ACTIVE
4248272	acc0 request for de580 for 64 needed elements
 -- dma->port
dim[0]: stride=1, trip_cnt=14136/409600, stretch=0
innermost: current=910784, acc_size=0/1, port=10
 in_port=10 (A ) repeat_in=1 stretch=0               ACTIVE
4248273	acc0 request for de5c0 for 64 needed elements
 -- dma->port
dim[0]: stride=1, trip_cnt=14200/409600, stretch=0
innermost: current=910848, acc_size=0/1, port=10
 in_port=10 (A ) repeat_in=1 stretch=0               ACTIVE
4248274	acc0 request for de600 for 64 needed elements
 -- dma->port
dim[0]: stride=1, trip_cnt=14264/409600, stretch=0
innermost: current=910912, acc_size=0/1, port=10
 in_port=10 (A ) repeat_in=1 stretch=0               ACTIVE
4248275	acc0 request for de640 for 64 needed elements
 -- dma->port
dim[0]: stride=1, trip_cnt=14328/409600, stretch=0
innermost: current=910976, acc_size=0/1, port=10
 in_port=10 (A ) repeat_in=1 stretch=0               ACTIVE
4248276	acc0 request for de680 for 64 needed elements
 -- dma->port
dim[0]: stride=1, trip_cnt=14392/409600, stretch=0
innermost: current=911040, acc_size=0/1, port=10
 in_port=10 (A ) repeat_in=1 stretch=0               ACTIVE
4248277	acc0 request for de6c0 for 64 needed elements
 -- dma->port
dim[0]: stride=1, trip_cnt=14456/409600, stretch=0
innermost: current=911104, acc_size=0/1, port=10
 in_port=10 (A ) repeat_in=1 stretch=0               ACTIVE
4248278	acc0 request for de700 for 64 needed elements
 -- dma->port
dim[0]: stride=1, trip_cnt=14520/409600, stretch=0
innermost: current=911168, acc_size=0/1, port=10
 in_port=10 (A ) repeat_in=1 stretch=0               ACTIVE
4248295	acc0 response for ce1c0for port 10, size in bytes: 64 elements
4248321	acc0 response for ce200for port 10, size in bytes: 64 elements
4248385	acc0 response for ce240for port 10, size in bytes: 64 elements
4248449	acc0 response for ce280for port 10, size in bytes: 64 elements
4248513	acc0 response for ce2c0for port 10, size in bytes: 64 elements
4248577	acc0 response for ce300for port 10, size in bytes: 64 elements
4248641	acc0 response for ce340for port 10, size in bytes: 64 elements
4248705	acc0 response for ce380for port 10, size in bytes: 64 elements
4248769	acc0 response for ce3c0for port 10, size in bytes: 64 elements
4248833	acc0 response for ce400for port 10, size in bytes: 64 elements
4248897	acc0 response for ce440for port 10, size in bytes: 64 elements
4248961	acc0 response for ce480for port 10, size in bytes: 64 elements
4249025	acc0 response for ce4c0for port 10, size in bytes: 64 elements
4249089	acc0 response for ce500for port 10, size in bytes: 64 elements
4249153	acc0 response for ce540for port 10, size in bytes: 64 elements
4249217	acc0 response for ce580for port 10, size in bytes: 64 elements
4249281	acc0 response for ce5c0for port 10, size in bytes: 64 elements
4249345	acc0 response for ce600for port 10, size in bytes: 64 elements
4249409	acc0 response for ce640for port 10, size in bytes: 64 elements
4249473	acc0 response for ce680for port 10, size in bytes: 64 elements
4249537	acc0 response for ce6c0for port 10, size in bytes: 64 elements
4249601	acc0 response for ce700for port 10, size in bytes: 64 elements
4249665	acc0 request for de740 for 64 needed elements
 -- dma->port
dim[0]: stride=1, trip_cnt=14584/409600, stretch=0
innermost: current=911232, acc_size=0/1, port=10
 in_port=10 (A ) repeat_in=1 stretch=0               ACTIVE
4249666	acc0 request for de780 for 64 needed elements
 -- dma->port
dim[0]: stride=1, trip_cnt=14648/409600, stretch=0
innermost: current=911296, acc_size=0/1, port=10
 in_port=10 (A ) repeat_in=1 stretch=0               ACTIVE
4249667	acc0 request for de7c0 for 64 needed elements
 -- dma->port
dim[0]: stride=1, trip_cnt=14712/409600, stretch=0
innermost: current=911360, acc_size=0/1, port=10
 in_port=10 (A ) repeat_in=1 stretch=0               ACTIVE
4249668	acc0 request for de800 for 64 needed elements
 -- dma->port
dim[0]: stride=1, trip_cnt=14776/409600, stretch=0
innermost: current=911424, acc_size=0/1, port=10
 in_port=10 (A ) repeat_in=1 stretch=0               ACTIVE
4249669	acc0 request for de840 for 64 needed elements
 -- dma->port
dim[0]: stride=1, trip_cnt=14840/409600, stretch=0
innermost: current=911488, acc_size=0/1, port=10
 in_port=10 (A ) repeat_in=1 stretch=0               ACTIVE
4249670	acc0 request for de880 for 64 needed elements
 -- dma->port
dim[0]: stride=1, trip_cnt=14904/409600, stretch=0
innermost: current=911552, acc_size=0/1, port=10
 in_port=10 (A ) repeat_in=1 stretch=0               ACTIVE
4249671	acc0 request for de8c0 for 64 needed elements
 -- dma->port
dim[0]: stride=1, trip_cnt=14968/409600, stretch=0
innermost: current=911616, acc_size=0/1, port=10
 in_port=10 (A ) repeat_in=1 stretch=0               ACTIVE
4249672	acc0 request for de900 for 64 needed elements
 -- dma->port
dim[0]: stride=1, trip_cnt=15032/409600, stretch=0
innermost: current=911680, acc_size=0/1, port=10
 in_port=10 (A ) repeat_in=1 stretch=0               ACTIVE
4249673	acc0 request for de940 for 64 needed elements
 -- dma->port
dim[0]: stride=1, trip_cnt=15096/409600, stretch=0
innermost: current=911744, acc_size=0/1, port=10
 in_port=10 (A ) repeat_in=1 stretch=0               ACTIVE
4249674	acc0 request for de980 for 64 needed elements
 -- dma->port
dim[0]: stride=1, trip_cnt=15160/409600, stretch=0
innermost: current=911808, acc_size=0/1, port=10
 in_port=10 (A ) repeat_in=1 stretch=0               ACTIVE
4249675	acc0 request for de9c0 for 64 needed elements
 -- dma->port
dim[0]: stride=1, trip_cnt=15224/409600, stretch=0
innermost: current=911872, acc_size=0/1, port=10
 in_port=10 (A ) repeat_in=1 stretch=0               ACTIVE
4249676	acc0 request for dea00 for 64 needed elements
 -- dma->port
dim[0]: stride=1, trip_cnt=15288/409600, stretch=0
innermost: current=911936, acc_size=0/1, port=10
 in_port=10 (A ) repeat_in=1 stretch=0               ACTIVE
4249677	acc0 request for dea40 for 64 needed elements
 -- dma->port
dim[0]: stride=1, trip_cnt=15352/409600, stretch=0
innermost: current=912000, acc_size=0/1, port=10
 in_port=10 (A ) repeat_in=1 stretch=0               ACTIVE
4249678	acc0 request for dea80 for 64 needed elements
 -- dma->port
dim[0]: stride=1, trip_cnt=15416/409600, stretch=0
innermost: current=912064, acc_size=0/1, port=10
 in_port=10 (A ) repeat_in=1 stretch=0               ACTIVE
4249679	acc0 request for deac0 for 64 needed elements
 -- dma->port
dim[0]: stride=1, trip_cnt=15480/409600, stretch=0
innermost: current=912128, acc_size=0/1, port=10
 in_port=10 (A ) repeat_in=1 stretch=0               ACTIVE
4249680	acc0 request for deb00 for 64 needed elements
 -- dma->port
dim[0]: stride=1, trip_cnt=15544/409600, stretch=0
innermost: current=912192, acc_size=0/1, port=10
 in_port=10 (A ) repeat_in=1 stretch=0               ACTIVE
4249681	acc0 request for deb40 for 64 needed elements
 -- dma->port
dim[0]: stride=1, trip_cnt=15608/409600, stretch=0
innermost: current=912256, acc_size=0/1, port=10
 in_port=10 (A ) repeat_in=1 stretch=0               ACTIVE
4249682	acc0 request for deb80 for 64 needed elements
 -- dma->port
dim[0]: stride=1, trip_cnt=15672/409600, stretch=0
innermost: current=912320, acc_size=0/1, port=10
 in_port=10 (A ) repeat_in=1 stretch=0               ACTIVE
4249683	acc0 request for debc0 for 64 needed elements
 -- dma->port
dim[0]: stride=1, trip_cnt=15736/409600, stretch=0
innermost: current=912384, acc_size=0/1, port=10
 in_port=10 (A ) repeat_in=1 stretch=0               ACTIVE
4249684	acc0 request for dec00 for 64 needed elements
 -- dma->port
dim[0]: stride=1, trip_cnt=15800/409600, stretch=0
innermost: current=912448, acc_size=0/1, port=10
 in_port=10 (A ) repeat_in=1 stretch=0               ACTIVE
4249685	acc0 request for dec40 for 64 needed elements
 -- dma->port
dim[0]: stride=1, trip_cnt=15864/409600, stretch=0
innermost: current=912512, acc_size=0/1, port=10
 in_port=10 (A ) repeat_in=1 stretch=0               ACTIVE
4249686	acc0 request for dec80 for 64 needed elements
 -- dma->port
dim[0]: stride=1, trip_cnt=15928/409600, stretch=0
innermost: current=912576, acc_size=0/1, port=10
 in_port=10 (A ) repeat_in=1 stretch=0               ACTIVE
4249703	acc0 response for ce740for port 10, size in bytes: 64 elements
4249729	acc0 response for ce780for port 10, size in bytes: 64 elements
4249793	acc0 response for ce7c0for port 10, size in bytes: 64 elements
4249857	acc0 response for ce800for port 10, size in bytes: 64 elements
4249921	acc0 response for ce840for port 10, size in bytes: 64 elements
4249985	acc0 response for ce880for port 10, size in bytes: 64 elements
4250049	acc0 response for ce8c0for port 10, size in bytes: 64 elements
4250113	acc0 response for ce900for port 10, size in bytes: 64 elements
4250177	acc0 response for ce940for port 10, size in bytes: 64 elements
4250241	acc0 response for ce980for port 10, size in bytes: 64 elements
4250305	acc0 response for ce9c0for port 10, size in bytes: 64 elements
4250369	acc0 response for cea00for port 10, size in bytes: 64 elements
4250433	acc0 response for cea40for port 10, size in bytes: 64 elements
4250497	acc0 response for cea80for port 10, size in bytes: 64 elements
4250561	acc0 response for ceac0for port 10, size in bytes: 64 elements
4250625	acc0 response for ceb00for port 10, size in bytes: 64 elements
4250689	acc0 response for ceb40for port 10, size in bytes: 64 elements
4250753	acc0 response for ceb80for port 10, size in bytes: 64 elements
4250817	acc0 response for cebc0for port 10, size in bytes: 64 elements
4250881	acc0 response for cec00for port 10, size in bytes: 64 elements
4250945	acc0 response for cec40for port 10, size in bytes: 64 elements
4251009	acc0 response for cec80for port 10, size in bytes: 64 elements
4251073	acc0 request for decc0 for 64 needed elements
 -- dma->port
dim[0]: stride=1, trip_cnt=15992/409600, stretch=0
innermost: current=912640, acc_size=0/1, port=10
 in_port=10 (A ) repeat_in=1 stretch=0               ACTIVE
4251074	acc0 request for ded00 for 64 needed elements
 -- dma->port
dim[0]: stride=1, trip_cnt=16056/409600, stretch=0
innermost: current=912704, acc_size=0/1, port=10
 in_port=10 (A ) repeat_in=1 stretch=0               ACTIVE
4251075	acc0 request for ded40 for 64 needed elements
 -- dma->port
dim[0]: stride=1, trip_cnt=16120/409600, stretch=0
innermost: current=912768, acc_size=0/1, port=10
 in_port=10 (A ) repeat_in=1 stretch=0               ACTIVE
4251076	acc0 request for ded80 for 64 needed elements
 -- dma->port
dim[0]: stride=1, trip_cnt=16184/409600, stretch=0
innermost: current=912832, acc_size=0/1, port=10
 in_port=10 (A ) repeat_in=1 stretch=0               ACTIVE
4251077	acc0 request for dedc0 for 64 needed elements
 -- dma->port
dim[0]: stride=1, trip_cnt=16248/409600, stretch=0
innermost: current=912896, acc_size=0/1, port=10
 in_port=10 (A ) repeat_in=1 stretch=0               ACTIVE
4251078	acc0 request for dee00 for 64 needed elements
 -- dma->port
dim[0]: stride=1, trip_cnt=16312/409600, stretch=0
innermost: current=912960, acc_size=0/1, port=10
 in_port=10 (A ) repeat_in=1 stretch=0               ACTIVE
4251079	acc0 request for dee40 for 64 needed elements
 -- dma->port
dim[0]: stride=1, trip_cnt=16376/409600, stretch=0
innermost: current=913024, acc_size=0/1, port=10
 in_port=10 (A ) repeat_in=1 stretch=0               ACTIVE
4251080	acc0 request for dee80 for 64 needed elements
 -- dma->port
dim[0]: stride=1, trip_cnt=16440/409600, stretch=0
innermost: current=913088, acc_size=0/1, port=10
 in_port=10 (A ) repeat_in=1 stretch=0               ACTIVE
4251081	acc0 request for deec0 for 64 needed elements
 -- dma->port
dim[0]: stride=1, trip_cnt=16504/409600, stretch=0
innermost: current=913152, acc_size=0/1, port=10
 in_port=10 (A ) repeat_in=1 stretch=0               ACTIVE
4251082	acc0 request for def00 for 64 needed elements
 -- dma->port
dim[0]: stride=1, trip_cnt=16568/409600, stretch=0
innermost: current=913216, acc_size=0/1, port=10
 in_port=10 (A ) repeat_in=1 stretch=0               ACTIVE
4251083	acc0 request for def40 for 64 needed elements
 -- dma->port
dim[0]: stride=1, trip_cnt=16632/409600, stretch=0
innermost: current=913280, acc_size=0/1, port=10
 in_port=10 (A ) repeat_in=1 stretch=0               ACTIVE
4251084	acc0 request for def80 for 64 needed elements
 -- dma->port
dim[0]: stride=1, trip_cnt=16696/409600, stretch=0
innermost: current=913344, acc_size=0/1, port=10
 in_port=10 (A ) repeat_in=1 stretch=0               ACTIVE
4251085	acc0 request for defc0 for 64 needed elements
 -- dma->port
dim[0]: stride=1, trip_cnt=16760/409600, stretch=0
innermost: current=913408, acc_size=0/1, port=10
 in_port=10 (A ) repeat_in=1 stretch=0               ACTIVE
4251086	acc0 request for df000 for 64 needed elements
 -- dma->port
dim[0]: stride=1, trip_cnt=16824/409600, stretch=0
innermost: current=913472, acc_size=0/1, port=10
 in_port=10 (A ) repeat_in=1 stretch=0               ACTIVE
4251087	acc0 request for df040 for 64 needed elements
 -- dma->port
dim[0]: stride=1, trip_cnt=16888/409600, stretch=0
innermost: current=913536, acc_size=0/1, port=10
 in_port=10 (A ) repeat_in=1 stretch=0               ACTIVE
4251088	acc0 request for df080 for 64 needed elements
 -- dma->port
dim[0]: stride=1, trip_cnt=16952/409600, stretch=0
innermost: current=913600, acc_size=0/1, port=10
 in_port=10 (A ) repeat_in=1 stretch=0               ACTIVE
4251089	acc0 request for df0c0 for 64 needed elements
 -- dma->port
dim[0]: stride=1, trip_cnt=17016/409600, stretch=0
innermost: current=913664, acc_size=0/1, port=10
 in_port=10 (A ) repeat_in=1 stretch=0               ACTIVE
4251090	acc0 request for df100 for 64 needed elements
 -- dma->port
dim[0]: stride=1, trip_cnt=17080/409600, stretch=0
innermost: current=913728, acc_size=0/1, port=10
 in_port=10 (A ) repeat_in=1 stretch=0               ACTIVE
4251091	acc0 request for df140 for 64 needed elements
 -- dma->port
dim[0]: stride=1, trip_cnt=17144/409600, stretch=0
innermost: current=913792, acc_size=0/1, port=10
 in_port=10 (A ) repeat_in=1 stretch=0               ACTIVE
4251092	acc0 request for df180 for 64 needed elements
 -- dma->port
dim[0]: stride=1, trip_cnt=17208/409600, stretch=0
[...]
 -- dma->port
dim[0]: stride=1, trip_cnt=406072/409600, stretch=0
innermost: current=1302720, acc_size=0/1, port=10
 in_port=10 (A ) repeat_in=1 stretch=0               ACTIVE
4641091	acc0 request for 13e0c0 for 64 needed elements
 -- dma->port
dim[0]: stride=1, trip_cnt=406136/409600, stretch=0
innermost: current=1302784, acc_size=0/1, port=10
 in_port=10 (A ) repeat_in=1 stretch=0               ACTIVE
4641092	acc0 request for 13e100 for 64 needed elements
 -- dma->port
dim[0]: stride=1, trip_cnt=406200/409600, stretch=0
innermost: current=1302848, acc_size=0/1, port=10
 in_port=10 (A ) repeat_in=1 stretch=0               ACTIVE
4641093	acc0 request for 13e140 for 64 needed elements
 -- dma->port
dim[0]: stride=1, trip_cnt=406264/409600, stretch=0
innermost: current=1302912, acc_size=0/1, port=10
 in_port=10 (A ) repeat_in=1 stretch=0               ACTIVE
4641094	acc0 request for 13e180 for 64 needed elements
 -- dma->port
dim[0]: stride=1, trip_cnt=406328/409600, stretch=0
innermost: current=1302976, acc_size=0/1, port=10
 in_port=10 (A ) repeat_in=1 stretch=0               ACTIVE
4641095	acc0 request for 13e1c0 for 64 needed elements
 -- dma->port
dim[0]: stride=1, trip_cnt=406392/409600, stretch=0
innermost: current=1303040, acc_size=0/1, port=10
 in_port=10 (A ) repeat_in=1 stretch=0               ACTIVE
4641096	acc0 request for 13e200 for 64 needed elements
 -- dma->port
dim[0]: stride=1, trip_cnt=406456/409600, stretch=0
innermost: current=1303104, acc_size=0/1, port=10
 in_port=10 (A ) repeat_in=1 stretch=0               ACTIVE
4641097	acc0 request for 13e240 for 64 needed elements
 -- dma->port
dim[0]: stride=1, trip_cnt=406520/409600, stretch=0
innermost: current=1303168, acc_size=0/1, port=10
 in_port=10 (A ) repeat_in=1 stretch=0               ACTIVE
4641098	acc0 request for 13e280 for 64 needed elements
 -- dma->port
dim[0]: stride=1, trip_cnt=406584/409600, stretch=0
innermost: current=1303232, acc_size=0/1, port=10
 in_port=10 (A ) repeat_in=1 stretch=0               ACTIVE
4641099	acc0 request for 13e2c0 for 64 needed elements
 -- dma->port
dim[0]: stride=1, trip_cnt=406648/409600, stretch=0
innermost: current=1303296, acc_size=0/1, port=10
 in_port=10 (A ) repeat_in=1 stretch=0               ACTIVE
4641100	acc0 request for 13e300 for 64 needed elements
 -- dma->port
dim[0]: stride=1, trip_cnt=406712/409600, stretch=0
innermost: current=1303360, acc_size=0/1, port=10
 in_port=10 (A ) repeat_in=1 stretch=0               ACTIVE
4641101	acc0 request for 13e340 for 64 needed elements
 -- dma->port
dim[0]: stride=1, trip_cnt=406776/409600, stretch=0
innermost: current=1303424, acc_size=0/1, port=10
 in_port=10 (A ) repeat_in=1 stretch=0               ACTIVE
4641102	acc0 request for 13e380 for 64 needed elements
 -- dma->port
dim[0]: stride=1, trip_cnt=406840/409600, stretch=0
innermost: current=1303488, acc_size=0/1, port=10
 in_port=10 (A ) repeat_in=1 stretch=0               ACTIVE
4641103	acc0 request for 13e3c0 for 64 needed elements
 -- dma->port
dim[0]: stride=1, trip_cnt=406904/409600, stretch=0
innermost: current=1303552, acc_size=0/1, port=10
 in_port=10 (A ) repeat_in=1 stretch=0               ACTIVE
4641104	acc0 request for 13e400 for 64 needed elements
 -- dma->port
dim[0]: stride=1, trip_cnt=406968/409600, stretch=0
innermost: current=1303616, acc_size=0/1, port=10
 in_port=10 (A ) repeat_in=1 stretch=0               ACTIVE
4641105	acc0 request for 13e440 for 64 needed elements
 -- dma->port
dim[0]: stride=1, trip_cnt=407032/409600, stretch=0
innermost: current=1303680, acc_size=0/1, port=10
 in_port=10 (A ) repeat_in=1 stretch=0               ACTIVE
4641106	acc0 request for 13e480 for 64 needed elements
 -- dma->port
dim[0]: stride=1, trip_cnt=407096/409600, stretch=0
innermost: current=1303744, acc_size=0/1, port=10
 in_port=10 (A ) repeat_in=1 stretch=0               ACTIVE
4641107	acc0 request for 13e4c0 for 64 needed elements
 -- dma->port
dim[0]: stride=1, trip_cnt=407160/409600, stretch=0
innermost: current=1303808, acc_size=0/1, port=10
 in_port=10 (A ) repeat_in=1 stretch=0               ACTIVE
4641108	acc0 request for 13e500 for 64 needed elements
 -- dma->port
dim[0]: stride=1, trip_cnt=407224/409600, stretch=0
innermost: current=1303872, acc_size=0/1, port=10
 in_port=10 (A ) repeat_in=1 stretch=0               ACTIVE
4641109	acc0 request for 13e540 for 64 needed elements
 -- dma->port
dim[0]: stride=1, trip_cnt=407288/409600, stretch=0
innermost: current=1303936, acc_size=0/1, port=10
 in_port=10 (A ) repeat_in=1 stretch=0               ACTIVE
4641110	acc0 request for 13e580 for 64 needed elements
 -- dma->port
dim[0]: stride=1, trip_cnt=407352/409600, stretch=0
innermost: current=1304000, acc_size=0/1, port=10
 in_port=10 (A ) repeat_in=1 stretch=0               ACTIVE
4641127	acc0 response for 12e040for port 10, size in bytes: 64 elements
4641153	acc0 response for 12e080for port 10, size in bytes: 64 elements
4641217	acc0 response for 12e0c0for port 10, size in bytes: 64 elements
4641281	acc0 response for 12e100for port 10, size in bytes: 64 elements
4641345	acc0 response for 12e140for port 10, size in bytes: 64 elements
4641409	acc0 response for 12e180for port 10, size in bytes: 64 elements
4641473	acc0 response for 12e1c0for port 10, size in bytes: 64 elements
4641537	acc0 response for 12e200for port 10, size in bytes: 64 elements
4641601	acc0 response for 12e240for port 10, size in bytes: 64 elements
4641665	acc0 response for 12e280for port 10, size in bytes: 64 elements
4641729	acc0 response for 12e2c0for port 10, size in bytes: 64 elements
4641793	acc0 response for 12e300for port 10, size in bytes: 64 elements
4641857	acc0 response for 12e340for port 10, size in bytes: 64 elements
4641921	acc0 response for 12e380for port 10, size in bytes: 64 elements
4641985	acc0 response for 12e3c0for port 10, size in bytes: 64 elements
4642049	acc0 response for 12e400for port 10, size in bytes: 64 elements
4642113	acc0 response for 12e440for port 10, size in bytes: 64 elements
4642177	acc0 response for 12e480for port 10, size in bytes: 64 elements
4642241	acc0 response for 12e4c0for port 10, size in bytes: 64 elements
4642305	acc0 response for 12e500for port 10, size in bytes: 64 elements
4642369	acc0 response for 12e540for port 10, size in bytes: 64 elements
4642433	acc0 response for 12e580for port 10, size in bytes: 64 elements
4642497	acc0 request for 13e5c0 for 64 needed elements
 -- dma->port
dim[0]: stride=1, trip_cnt=407416/409600, stretch=0
innermost: current=1304064, acc_size=0/1, port=10
 in_port=10 (A ) repeat_in=1 stretch=0               ACTIVE
4642498	acc0 request for 13e600 for 64 needed elements
 -- dma->port
dim[0]: stride=1, trip_cnt=407480/409600, stretch=0
innermost: current=1304128, acc_size=0/1, port=10
 in_port=10 (A ) repeat_in=1 stretch=0               ACTIVE
4642499	acc0 request for 13e640 for 64 needed elements
 -- dma->port
dim[0]: stride=1, trip_cnt=407544/409600, stretch=0
innermost: current=1304192, acc_size=0/1, port=10
 in_port=10 (A ) repeat_in=1 stretch=0               ACTIVE
4642500	acc0 request for 13e680 for 64 needed elements
 -- dma->port
dim[0]: stride=1, trip_cnt=407608/409600, stretch=0
innermost: current=1304256, acc_size=0/1, port=10
 in_port=10 (A ) repeat_in=1 stretch=0               ACTIVE
4642501	acc0 request for 13e6c0 for 64 needed elements
 -- dma->port
dim[0]: stride=1, trip_cnt=407672/409600, stretch=0
innermost: current=1304320, acc_size=0/1, port=10
 in_port=10 (A ) repeat_in=1 stretch=0               ACTIVE
4642502	acc0 request for 13e700 for 64 needed elements
 -- dma->port
dim[0]: stride=1, trip_cnt=407736/409600, stretch=0
innermost: current=1304384, acc_size=0/1, port=10
 in_port=10 (A ) repeat_in=1 stretch=0               ACTIVE
4642503	acc0 request for 13e740 for 64 needed elements
 -- dma->port
dim[0]: stride=1, trip_cnt=407800/409600, stretch=0
innermost: current=1304448, acc_size=0/1, port=10
 in_port=10 (A ) repeat_in=1 stretch=0               ACTIVE
4642504	acc0 request for 13e780 for 64 needed elements
 -- dma->port
dim[0]: stride=1, trip_cnt=407864/409600, stretch=0
innermost: current=1304512, acc_size=0/1, port=10
 in_port=10 (A ) repeat_in=1 stretch=0               ACTIVE
4642505	acc0 request for 13e7c0 for 64 needed elements
 -- dma->port
dim[0]: stride=1, trip_cnt=407928/409600, stretch=0
innermost: current=1304576, acc_size=0/1, port=10
 in_port=10 (A ) repeat_in=1 stretch=0               ACTIVE
4642506	acc0 request for 13e800 for 64 needed elements
 -- dma->port
dim[0]: stride=1, trip_cnt=407992/409600, stretch=0
innermost: current=1304640, acc_size=0/1, port=10
 in_port=10 (A ) repeat_in=1 stretch=0               ACTIVE
4642507	acc0 request for 13e840 for 64 needed elements
 -- dma->port
dim[0]: stride=1, trip_cnt=408056/409600, stretch=0
innermost: current=1304704, acc_size=0/1, port=10
 in_port=10 (A ) repeat_in=1 stretch=0               ACTIVE
4642508	acc0 request for 13e880 for 64 needed elements
 -- dma->port
dim[0]: stride=1, trip_cnt=408120/409600, stretch=0
innermost: current=1304768, acc_size=0/1, port=10
 in_port=10 (A ) repeat_in=1 stretch=0               ACTIVE
4642509	acc0 request for 13e8c0 for 64 needed elements
 -- dma->port
dim[0]: stride=1, trip_cnt=408184/409600, stretch=0
innermost: current=1304832, acc_size=0/1, port=10
 in_port=10 (A ) repeat_in=1 stretch=0               ACTIVE
4642510	acc0 request for 13e900 for 64 needed elements
 -- dma->port
dim[0]: stride=1, trip_cnt=408248/409600, stretch=0
innermost: current=1304896, acc_size=0/1, port=10
 in_port=10 (A ) repeat_in=1 stretch=0               ACTIVE
4642511	acc0 request for 13e940 for 64 needed elements
 -- dma->port
dim[0]: stride=1, trip_cnt=408312/409600, stretch=0
innermost: current=1304960, acc_size=0/1, port=10
 in_port=10 (A ) repeat_in=1 stretch=0               ACTIVE
4642512	acc0 request for 13e980 for 64 needed elements
 -- dma->port
dim[0]: stride=1, trip_cnt=408376/409600, stretch=0
innermost: current=1305024, acc_size=0/1, port=10
 in_port=10 (A ) repeat_in=1 stretch=0               ACTIVE
4642513	acc0 request for 13e9c0 for 64 needed elements
 -- dma->port
dim[0]: stride=1, trip_cnt=408440/409600, stretch=0
innermost: current=1305088, acc_size=0/1, port=10
 in_port=10 (A ) repeat_in=1 stretch=0               ACTIVE
4642514	acc0 request for 13ea00 for 64 needed elements
 -- dma->port
dim[0]: stride=1, trip_cnt=408504/409600, stretch=0
innermost: current=1305152, acc_size=0/1, port=10
 in_port=10 (A ) repeat_in=1 stretch=0               ACTIVE
4642515	acc0 request for 13ea40 for 64 needed elements
 -- dma->port
dim[0]: stride=1, trip_cnt=408568/409600, stretch=0
innermost: current=1305216, acc_size=0/1, port=10
 in_port=10 (A ) repeat_in=1 stretch=0               ACTIVE
4642516	acc0 request for 13ea80 for 64 needed elements
 -- dma->port
dim[0]: stride=1, trip_cnt=408632/409600, stretch=0
innermost: current=1305280, acc_size=0/1, port=10
 in_port=10 (A ) repeat_in=1 stretch=0               ACTIVE
4642517	acc0 request for 13eac0 for 64 needed elements
 -- dma->port
dim[0]: stride=1, trip_cnt=408696/409600, stretch=0
innermost: current=1305344, acc_size=0/1, port=10
 in_port=10 (A ) repeat_in=1 stretch=0               ACTIVE
4642518	acc0 request for 13eb00 for 64 needed elements
 -- dma->port
dim[0]: stride=1, trip_cnt=408760/409600, stretch=0
innermost: current=1305408, acc_size=0/1, port=10
 in_port=10 (A ) repeat_in=1 stretch=0               ACTIVE
4642535	acc0 response for 12e5c0for port 10, size in bytes: 64 elements
4642561	acc0 response for 12e600for port 10, size in bytes: 64 elements
4642625	acc0 response for 12e640for port 10, size in bytes: 64 elements
4642689	acc0 response for 12e680for port 10, size in bytes: 64 elements
4642753	acc0 response for 12e6c0for port 10, size in bytes: 64 elements
4642817	acc0 response for 12e700for port 10, size in bytes: 64 elements
4642881	acc0 response for 12e740for port 10, size in bytes: 64 elements
4642945	acc0 response for 12e780for port 10, size in bytes: 64 elements
4643009	acc0 response for 12e7c0for port 10, size in bytes: 64 elements
4643073	acc0 response for 12e800for port 10, size in bytes: 64 elements
4643137	acc0 response for 12e840for port 10, size in bytes: 64 elements
4643201	acc0 response for 12e880for port 10, size in bytes: 64 elements
4643265	acc0 response for 12e8c0for port 10, size in bytes: 64 elements
4643329	acc0 response for 12e900for port 10, size in bytes: 64 elements
4643393	acc0 response for 12e940for port 10, size in bytes: 64 elements
4643457	acc0 response for 12e980for port 10, size in bytes: 64 elements
4643521	acc0 response for 12e9c0for port 10, size in bytes: 64 elements
4643585	acc0 response for 12ea00for port 10, size in bytes: 64 elements
4643649	acc0 response for 12ea40for port 10, size in bytes: 64 elements
4643713	acc0 response for 12ea80for port 10, size in bytes: 64 elements
4643777	acc0 response for 12eac0for port 10, size in bytes: 64 elements
4643841	acc0 response for 12eb00for port 10, size in bytes: 64 elements
4643905	acc0 request for 13eb40 for 64 needed elements
 -- dma->port
dim[0]: stride=1, trip_cnt=408824/409600, stretch=0
innermost: current=1305472, acc_size=0/1, port=10
 in_port=10 (A ) repeat_in=1 stretch=0               ACTIVE
4643906	acc0 request for 13eb80 for 64 needed elements
 -- dma->port
dim[0]: stride=1, trip_cnt=408888/409600, stretch=0
innermost: current=1305536, acc_size=0/1, port=10
 in_port=10 (A ) repeat_in=1 stretch=0               ACTIVE
4643907	acc0 request for 13ebc0 for 64 needed elements
 -- dma->port
dim[0]: stride=1, trip_cnt=408952/409600, stretch=0
innermost: current=1305600, acc_size=0/1, port=10
 in_port=10 (A ) repeat_in=1 stretch=0               ACTIVE
4643908	acc0 request for 13ec00 for 64 needed elements
 -- dma->port
dim[0]: stride=1, trip_cnt=409016/409600, stretch=0
innermost: current=1305664, acc_size=0/1, port=10
 in_port=10 (A ) repeat_in=1 stretch=0               ACTIVE
4643909	acc0 request for 13ec40 for 64 needed elements
 -- dma->port
dim[0]: stride=1, trip_cnt=409080/409600, stretch=0
innermost: current=1305728, acc_size=0/1, port=10
 in_port=10 (A ) repeat_in=1 stretch=0               ACTIVE
4643910	acc0 request for 13ec80 for 64 needed elements
 -- dma->port
dim[0]: stride=1, trip_cnt=409144/409600, stretch=0
innermost: current=1305792, acc_size=0/1, port=10
 in_port=10 (A ) repeat_in=1 stretch=0               ACTIVE
4643911	acc0 request for 13ecc0 for 64 needed elements
 -- dma->port
dim[0]: stride=1, trip_cnt=409208/409600, stretch=0
innermost: current=1305856, acc_size=0/1, port=10
 in_port=10 (A ) repeat_in=1 stretch=0               ACTIVE
4643912	acc0 request for 13ed00 for 64 needed elements
 -- dma->port
dim[0]: stride=1, trip_cnt=409272/409600, stretch=0
innermost: current=1305920, acc_size=0/1, port=10
 in_port=10 (A ) repeat_in=1 stretch=0               ACTIVE
4643913	acc0 request for 13ed40 for 64 needed elements
 -- dma->port
dim[0]: stride=1, trip_cnt=409336/409600, stretch=0
innermost: current=1305984, acc_size=0/1, port=10
 in_port=10 (A ) repeat_in=1 stretch=0               ACTIVE
4643914	acc0 request for 13ed80 for 64 needed elements
 -- dma->port
dim[0]: stride=1, trip_cnt=409400/409600, stretch=0
innermost: current=1306048, acc_size=0/1, port=10
 in_port=10 (A ) repeat_in=1 stretch=0               ACTIVE
4643915	acc0 request for 13edc0 for 64 needed elements
 -- dma->port
dim[0]: stride=1, trip_cnt=409464/409600, stretch=0
innermost: current=1306112, acc_size=0/1, port=10
 in_port=10 (A ) repeat_in=1 stretch=0               ACTIVE
4643916	acc0 request for 13ee00 for 64 needed elements
 -- dma->port
dim[0]: stride=1, trip_cnt=409528/409600, stretch=0
innermost: current=1306176, acc_size=0/1, port=10
 in_port=10 (A ) repeat_in=1 stretch=0               ACTIVE
4643917	acc0 request for 13ee40 for 64 needed elements
 -- dma->port
dim[0]: stride=1, trip_cnt=409592/409600, stretch=0
innermost: current=1306240, acc_size=0/1, port=10
 in_port=10 (A ) repeat_in=1 stretch=0               ACTIVE
4643918	acc0 4643918	acc0 request for 13ee80 for 8 needed elements
 -- dma->port
dim[0]: stride=1, trip_cnt=409600/409600, stretch=0
innermost: current=1306248, acc_size=0/1, port=10
 in_port=10 (A ) repeat_in=1 stretch=0             inactiveEMPTY!
4643943	acc0 response for 12eb40for port 10, size in bytes: 64 elements
4643969	acc0 response for 12eb80for port 10, size in bytes: 64 elements
4644033	acc0 response for 12ebc0for port 10, size in bytes: 64 elements
4644097	acc0 response for 12ec00for port 10, size in bytes: 64 elements
4644161	acc0 response for 12ec40for port 10, size in bytes: 64 elements
4644225	acc0 response for 12ec80for port 10, size in bytes: 64 elements
4644289	acc0 response for 12ecc0for port 10, size in bytes: 64 elements
4644353	acc0 response for 12ed00for port 10, size in bytes: 64 elements
4644417	acc0 response for 12ed40for port 10, size in bytes: 64 elements
4644481	acc0 response for 12ed80for port 10, size in bytes: 64 elements
4644545	acc0 response for 12edc0for port 10, size in bytes: 64 elements
4644609	acc0 response for 12ee00for port 10, size in bytes: 64 elements
4644673	acc0 response for 12ee40for port 10, size in bytes: 64 elements
4644681	acc0 response for 12ee80for port 10, size in bytes: 8 elements(last)
breakpointbreakpointbreakpointbreakpointbreakpointbreakpointbreakpointbreakpointbreakpointbreakpointbreakpoint
*** ROI STATISTICS for CORE ID: 1 ***
Simulator Time: 0 sec
Cycles: 0
Control Core Insts Issued: 0
Control Core Discarded Insts Issued: 0
Control Core Discarded Inst Stalls: -nan
Control Core Config Stalls: -nan
Control Core Wait Stalls:   

ACCEL 0 STATS ***
Commands Issued: 0
CGRA Instances: 0 -- Activity Ratio: -nan, DFGs / Cycle: -nan
For backcgra, Average thoughput of all ports (overall): -nan, CGRA outputs/cgra busy cycles: -nan
CGRA Insts / Computation Instance: -nan
CGRA Insts / Cycle: -nan (overall activity factor)
Mapped DFG utilization: -nan
Data availability ratio: inf
input port imbalance (%age dgra nodes could not fire): -nan
Percentage bank conflicts: -nan
L1 cache hit rate: -nan
Avg wait cycles on a byte read: -nan
Cycle Breakdown: CONFIG:-nan ISSUED:-nan ISSUED_MULTI:-nan TEMPORAL_ONLY:-nan CONST_FILL:-nan SCR_FILL:-nan DMA_FILL:-nan REC_WAIT:-nan CORE_WAIT:-nan SCR_BAR_WAIT:-nan DMA_WRITE:-nan CMD_QUEUE:-nan CGRA_BACK:-nan DRAIN:-nan NOT_IN_USE:-nan 
Bandwidth Table: (B/c=Bytes/cycle, B/r=Bytes/request) -- Breakdown (sources/destinatinos): 
SP_READ:	(0 B/c, 0 B/r)  -- 
SP_WRITE:	(0 B/c, 0 B/r)  -- 
DMA_LOAD:	(0 B/c, 0 B/r)  -- 
DMA_STORE:	(0 B/c, 0 B/r)  -- 
REC_BUS_READ:	(0 B/c, 0 B/r)  -- 
NETWORK:	(0 B/c, 0 B/r)  -- 
---- ACCEL 0 STATUS ----
MEM REQs OUTSTANDING: 0
Active SEs:
port->scr
innermost: current=16384, acc_size=16384/409600, port=11
 out_port=11 garbage=1               ACTIVE
Waiting SEs: (0)
Ports:
In Port 10 A:   Mem Size: 0  Num Ready: 0 Rem writes: 0
Ind In Port 23:   Mem Size: 0  Num Ready: 0 Rem writes: 0
Ind In Port 24:   Mem Size: 0  Num Ready: 0 Rem writes: 0
Ind In Port 25:   Mem Size: 0  Num Ready: 0 Rem writes: 0
Ind In Port 26:   Mem Size: 0  Num Ready: 0 Rem writes: 0
Ind In Port 27:   Mem Size: 0  Num Ready: 0 Rem writes: 0
Ind In Port 28:   Mem Size: 0  Num Ready: 0 Rem writes: 0
Ind In Port 29:   Mem Size: 0  Num Ready: 0 Rem writes: 0
Ind In Port 30:   Mem Size: 0  Num Ready: 0 Rem writes: 0
Ind In Port 31:   Mem Size: 0  Num Ready: 0 Rem writes: 0
Out Port 11 B:   In Flight: 0  Num Ready: 0  Mem Size: 393216
PORT -> SCR Stream Not Empty

Cores used: 1bitmask: 1
Total Memory Activity: -nan

 -- Parallelization Estimates --
Multi-Pipeline Cycles (cores:cycles): 1:0 2:0 3:0 4:0 5:0 6:0 7:0 8:0 9:0 10:0 11:0 12:0 13:0 14:0 15:0 16:0 17:0 18:0 
Multi-Pipeline Activity: (cores:cycles)1:-nan 2:-nan 3:-nan 4:-nan 5:-nan 6:-nan 7:-nan 8:-nan 9:-nan 10:-nan 11:-nan 12:-nan 13:-nan 14:-nan 15:-nan 16:-nan 17:-nan 18:-nan 

